! Program Version,EnergyPlus, Version 8.5.0-c87e61b44b, YMD=2020.11.05 15:28,IDD_Version 8.5.0
! Output:Meter Objects (applicable to this run)
Output:Meter,Electricity:Facility,hourly; !- [J]
Output:Meter:Cumulative,Electricity:Facility,hourly; !- [J]
Output:Meter,Electricity:Building,hourly; !- [J]
Output:Meter:Cumulative,Electricity:Building,hourly; !- [J]
Output:Meter,Electricity:Zone:ZONE-VAV-CORRIDOR,hourly; !- [J]
Output:Meter:Cumulative,Electricity:Zone:ZONE-VAV-CORRIDOR,hourly; !- [J]
Output:Meter,InteriorLights:Electricity,hourly; !- [J]
Output:Meter:Cumulative,InteriorLights:Electricity,hourly; !- [J]
Output:Meter,InteriorLights:Electricity:Zone:ZONE-VAV-CORRIDOR,hourly; !- [J]
Output:Meter:Cumulative,InteriorLights:Electricity:Zone:ZONE-VAV-CORRIDOR,hourly; !- [J]
Output:Meter,General Lights:InteriorLights:Electricity,hourly; !- [J]
Output:Meter:Cumulative,General Lights:InteriorLights:Electricity,hourly; !- [J]
Output:Meter,Electricity:Zone:ZONE-VAV-102,hourly; !- [J]
Output:Meter:Cumulative,Electricity:Zone:ZONE-VAV-102,hourly; !- [J]
Output:Meter,InteriorLights:Electricity:Zone:ZONE-VAV-102,hourly; !- [J]
Output:Meter:Cumulative,InteriorLights:Electricity:Zone:ZONE-VAV-102,hourly; !- [J]
Output:Meter,Electricity:Zone:ZONE-VAV-104,hourly; !- [J]
Output:Meter:Cumulative,Electricity:Zone:ZONE-VAV-104,hourly; !- [J]
Output:Meter,InteriorLights:Electricity:Zone:ZONE-VAV-104,hourly; !- [J]
Output:Meter:Cumulative,InteriorLights:Electricity:Zone:ZONE-VAV-104,hourly; !- [J]
Output:Meter,Electricity:Zone:ZONE-VAV-105,hourly; !- [J]
Output:Meter:Cumulative,Electricity:Zone:ZONE-VAV-105,hourly; !- [J]
Output:Meter,InteriorLights:Electricity:Zone:ZONE-VAV-105,hourly; !- [J]
Output:Meter:Cumulative,InteriorLights:Electricity:Zone:ZONE-VAV-105,hourly; !- [J]
Output:Meter,Electricity:Zone:ZONE-VAV-107,hourly; !- [J]
Output:Meter:Cumulative,Electricity:Zone:ZONE-VAV-107,hourly; !- [J]
Output:Meter,InteriorLights:Electricity:Zone:ZONE-VAV-107,hourly; !- [J]
Output:Meter:Cumulative,InteriorLights:Electricity:Zone:ZONE-VAV-107,hourly; !- [J]
Output:Meter,Electricity:Zone:ZONE-VAV-108,hourly; !- [J]
Output:Meter:Cumulative,Electricity:Zone:ZONE-VAV-108,hourly; !- [J]
Output:Meter,InteriorLights:Electricity:Zone:ZONE-VAV-108,hourly; !- [J]
Output:Meter:Cumulative,InteriorLights:Electricity:Zone:ZONE-VAV-108,hourly; !- [J]
Output:Meter,Electricity:Zone:ZONE-VAV-112,hourly; !- [J]
Output:Meter:Cumulative,Electricity:Zone:ZONE-VAV-112,hourly; !- [J]
Output:Meter,InteriorLights:Electricity:Zone:ZONE-VAV-112,hourly; !- [J]
Output:Meter:Cumulative,InteriorLights:Electricity:Zone:ZONE-VAV-112,hourly; !- [J]
Output:Meter,Electricity:Zone:ZONE-VAV-116,hourly; !- [J]
Output:Meter:Cumulative,Electricity:Zone:ZONE-VAV-116,hourly; !- [J]
Output:Meter,InteriorLights:Electricity:Zone:ZONE-VAV-116,hourly; !- [J]
Output:Meter:Cumulative,InteriorLights:Electricity:Zone:ZONE-VAV-116,hourly; !- [J]
Output:Meter,Electricity:Zone:ZONE-VAV-118,hourly; !- [J]
Output:Meter:Cumulative,Electricity:Zone:ZONE-VAV-118,hourly; !- [J]
Output:Meter,InteriorLights:Electricity:Zone:ZONE-VAV-118,hourly; !- [J]
Output:Meter:Cumulative,InteriorLights:Electricity:Zone:ZONE-VAV-118,hourly; !- [J]
Output:Meter,Electricity:Zone:ZONE-VAV-119,hourly; !- [J]
Output:Meter:Cumulative,Electricity:Zone:ZONE-VAV-119,hourly; !- [J]
Output:Meter,InteriorLights:Electricity:Zone:ZONE-VAV-119,hourly; !- [J]
Output:Meter:Cumulative,InteriorLights:Electricity:Zone:ZONE-VAV-119,hourly; !- [J]
Output:Meter,Electricity:Zone:ZONE-VAV-120,hourly; !- [J]
Output:Meter:Cumulative,Electricity:Zone:ZONE-VAV-120,hourly; !- [J]
Output:Meter,InteriorLights:Electricity:Zone:ZONE-VAV-120,hourly; !- [J]
Output:Meter:Cumulative,InteriorLights:Electricity:Zone:ZONE-VAV-120,hourly; !- [J]
Output:Meter,Electricity:Zone:ZONE-VAV-123A,hourly; !- [J]
Output:Meter:Cumulative,Electricity:Zone:ZONE-VAV-123A,hourly; !- [J]
Output:Meter,InteriorLights:Electricity:Zone:ZONE-VAV-123A,hourly; !- [J]
Output:Meter:Cumulative,InteriorLights:Electricity:Zone:ZONE-VAV-123A,hourly; !- [J]
Output:Meter,Electricity:Zone:ZONE-VAV-123B,hourly; !- [J]
Output:Meter:Cumulative,Electricity:Zone:ZONE-VAV-123B,hourly; !- [J]
Output:Meter,InteriorLights:Electricity:Zone:ZONE-VAV-123B,hourly; !- [J]
Output:Meter:Cumulative,InteriorLights:Electricity:Zone:ZONE-VAV-123B,hourly; !- [J]
Output:Meter,Electricity:Zone:ZONE-VAV-127A,hourly; !- [J]
Output:Meter:Cumulative,Electricity:Zone:ZONE-VAV-127A,hourly; !- [J]
Output:Meter,InteriorLights:Electricity:Zone:ZONE-VAV-127A,hourly; !- [J]
Output:Meter:Cumulative,InteriorLights:Electricity:Zone:ZONE-VAV-127A,hourly; !- [J]
Output:Meter,Electricity:Zone:ZONE-VAV-127B,hourly; !- [J]
Output:Meter:Cumulative,Electricity:Zone:ZONE-VAV-127B,hourly; !- [J]
Output:Meter,InteriorLights:Electricity:Zone:ZONE-VAV-127B,hourly; !- [J]
Output:Meter:Cumulative,InteriorLights:Electricity:Zone:ZONE-VAV-127B,hourly; !- [J]
Output:Meter,Electricity:Zone:ZONE-VAV-129,hourly; !- [J]
Output:Meter:Cumulative,Electricity:Zone:ZONE-VAV-129,hourly; !- [J]
Output:Meter,InteriorLights:Electricity:Zone:ZONE-VAV-129,hourly; !- [J]
Output:Meter:Cumulative,InteriorLights:Electricity:Zone:ZONE-VAV-129,hourly; !- [J]
Output:Meter,Electricity:Zone:ZONE-VAV-131,hourly; !- [J]
Output:Meter:Cumulative,Electricity:Zone:ZONE-VAV-131,hourly; !- [J]
Output:Meter,InteriorLights:Electricity:Zone:ZONE-VAV-131,hourly; !- [J]
Output:Meter:Cumulative,InteriorLights:Electricity:Zone:ZONE-VAV-131,hourly; !- [J]
Output:Meter,Electricity:Zone:ZONE-VAV-133,hourly; !- [J]
Output:Meter:Cumulative,Electricity:Zone:ZONE-VAV-133,hourly; !- [J]
Output:Meter,InteriorLights:Electricity:Zone:ZONE-VAV-133,hourly; !- [J]
Output:Meter:Cumulative,InteriorLights:Electricity:Zone:ZONE-VAV-133,hourly; !- [J]
Output:Meter,Electricity:Zone:ZONE-VAV-142,hourly; !- [J]
Output:Meter:Cumulative,Electricity:Zone:ZONE-VAV-142,hourly; !- [J]
Output:Meter,InteriorLights:Electricity:Zone:ZONE-VAV-142,hourly; !- [J]
Output:Meter:Cumulative,InteriorLights:Electricity:Zone:ZONE-VAV-142,hourly; !- [J]
Output:Meter,Electricity:Zone:ZONE-VAV-143,hourly; !- [J]
Output:Meter:Cumulative,Electricity:Zone:ZONE-VAV-143,hourly; !- [J]
Output:Meter,InteriorLights:Electricity:Zone:ZONE-VAV-143,hourly; !- [J]
Output:Meter:Cumulative,InteriorLights:Electricity:Zone:ZONE-VAV-143,hourly; !- [J]
Output:Meter,Electricity:Zone:ZONE-VAV-150,hourly; !- [J]
Output:Meter:Cumulative,Electricity:Zone:ZONE-VAV-150,hourly; !- [J]
Output:Meter,InteriorLights:Electricity:Zone:ZONE-VAV-150,hourly; !- [J]
Output:Meter:Cumulative,InteriorLights:Electricity:Zone:ZONE-VAV-150,hourly; !- [J]
Output:Meter,Electricity:Zone:ZONE-AHU-002,hourly; !- [J]
Output:Meter:Cumulative,Electricity:Zone:ZONE-AHU-002,hourly; !- [J]
Output:Meter,InteriorLights:Electricity:Zone:ZONE-AHU-002,hourly; !- [J]
Output:Meter:Cumulative,InteriorLights:Electricity:Zone:ZONE-AHU-002,hourly; !- [J]
Output:Meter,Electricity:Zone:ZONE-AHU-004,hourly; !- [J]
Output:Meter:Cumulative,Electricity:Zone:ZONE-AHU-004,hourly; !- [J]
Output:Meter,InteriorLights:Electricity:Zone:ZONE-AHU-004,hourly; !- [J]
Output:Meter:Cumulative,InteriorLights:Electricity:Zone:ZONE-AHU-004,hourly; !- [J]
Output:Meter,Electricity:Zone:ZONE-AHU-005,hourly; !- [J]
Output:Meter:Cumulative,Electricity:Zone:ZONE-AHU-005,hourly; !- [J]
Output:Meter,InteriorLights:Electricity:Zone:ZONE-AHU-005,hourly; !- [J]
Output:Meter:Cumulative,InteriorLights:Electricity:Zone:ZONE-AHU-005,hourly; !- [J]
Output:Meter,Electricity:Zone:ZONE-FCU-001,hourly; !- [J]
Output:Meter:Cumulative,Electricity:Zone:ZONE-FCU-001,hourly; !- [J]
Output:Meter,InteriorLights:Electricity:Zone:ZONE-FCU-001,hourly; !- [J]
Output:Meter:Cumulative,InteriorLights:Electricity:Zone:ZONE-FCU-001,hourly; !- [J]
Output:Meter,Electricity:Zone:ZONE-FCU-002,hourly; !- [J]
Output:Meter:Cumulative,Electricity:Zone:ZONE-FCU-002,hourly; !- [J]
Output:Meter,InteriorLights:Electricity:Zone:ZONE-FCU-002,hourly; !- [J]
Output:Meter:Cumulative,InteriorLights:Electricity:Zone:ZONE-FCU-002,hourly; !- [J]
Output:Meter,Electricity:Zone:ZONE-FCU-003,hourly; !- [J]
Output:Meter:Cumulative,Electricity:Zone:ZONE-FCU-003,hourly; !- [J]
Output:Meter,InteriorLights:Electricity:Zone:ZONE-FCU-003,hourly; !- [J]
Output:Meter:Cumulative,InteriorLights:Electricity:Zone:ZONE-FCU-003,hourly; !- [J]
Output:Meter,Electricity:Zone:ZONE-HTR-001,hourly; !- [J]
Output:Meter:Cumulative,Electricity:Zone:ZONE-HTR-001,hourly; !- [J]
Output:Meter,InteriorLights:Electricity:Zone:ZONE-HTR-001,hourly; !- [J]
Output:Meter:Cumulative,InteriorLights:Electricity:Zone:ZONE-HTR-001,hourly; !- [J]
Output:Meter,Electricity:Zone:ZONE-HTR-002,hourly; !- [J]
Output:Meter:Cumulative,Electricity:Zone:ZONE-HTR-002,hourly; !- [J]
Output:Meter,InteriorLights:Electricity:Zone:ZONE-HTR-002,hourly; !- [J]
Output:Meter:Cumulative,InteriorLights:Electricity:Zone:ZONE-HTR-002,hourly; !- [J]
Output:Meter,Electricity:Zone:ZONE-HTR-003,hourly; !- [J]
Output:Meter:Cumulative,Electricity:Zone:ZONE-HTR-003,hourly; !- [J]
Output:Meter,InteriorLights:Electricity:Zone:ZONE-HTR-003,hourly; !- [J]
Output:Meter:Cumulative,InteriorLights:Electricity:Zone:ZONE-HTR-003,hourly; !- [J]
Output:Meter,Electricity:Zone:ZONE-HTR-004,hourly; !- [J]
Output:Meter:Cumulative,Electricity:Zone:ZONE-HTR-004,hourly; !- [J]
Output:Meter,InteriorLights:Electricity:Zone:ZONE-HTR-004,hourly; !- [J]
Output:Meter:Cumulative,InteriorLights:Electricity:Zone:ZONE-HTR-004,hourly; !- [J]
Output:Meter,Electricity:Zone:ZONE-VAV-RESTROOM,hourly; !- [J]
Output:Meter:Cumulative,Electricity:Zone:ZONE-VAV-RESTROOM,hourly; !- [J]
Output:Meter,InteriorLights:Electricity:Zone:ZONE-VAV-RESTROOM,hourly; !- [J]
Output:Meter:Cumulative,InteriorLights:Electricity:Zone:ZONE-VAV-RESTROOM,hourly; !- [J]
Output:Meter,Electricity:Zone:ZONE-VAV-136,hourly; !- [J]
Output:Meter:Cumulative,Electricity:Zone:ZONE-VAV-136,hourly; !- [J]
Output:Meter,InteriorLights:Electricity:Zone:ZONE-VAV-136,hourly; !- [J]
Output:Meter:Cumulative,InteriorLights:Electricity:Zone:ZONE-VAV-136,hourly; !- [J]
Output:Meter,InteriorEquipment:Electricity,hourly; !- [J]
Output:Meter:Cumulative,InteriorEquipment:Electricity,hourly; !- [J]
Output:Meter,InteriorEquipment:Electricity:Zone:ZONE-VAV-CORRIDOR,hourly; !- [J]
Output:Meter:Cumulative,InteriorEquipment:Electricity:Zone:ZONE-VAV-CORRIDOR,hourly; !- [J]
Output:Meter,MiscPlug:InteriorEquipment:Electricity,hourly; !- [J]
Output:Meter:Cumulative,MiscPlug:InteriorEquipment:Electricity,hourly; !- [J]
Output:Meter,InteriorEquipment:Electricity:Zone:ZONE-VAV-102,hourly; !- [J]
Output:Meter:Cumulative,InteriorEquipment:Electricity:Zone:ZONE-VAV-102,hourly; !- [J]
Output:Meter,InteriorEquipment:Electricity:Zone:ZONE-VAV-104,hourly; !- [J]
Output:Meter:Cumulative,InteriorEquipment:Electricity:Zone:ZONE-VAV-104,hourly; !- [J]
Output:Meter,InteriorEquipment:Electricity:Zone:ZONE-VAV-105,hourly; !- [J]
Output:Meter:Cumulative,InteriorEquipment:Electricity:Zone:ZONE-VAV-105,hourly; !- [J]
Output:Meter,InteriorEquipment:Electricity:Zone:ZONE-VAV-107,hourly; !- [J]
Output:Meter:Cumulative,InteriorEquipment:Electricity:Zone:ZONE-VAV-107,hourly; !- [J]
Output:Meter,InteriorEquipment:Electricity:Zone:ZONE-VAV-108,hourly; !- [J]
Output:Meter:Cumulative,InteriorEquipment:Electricity:Zone:ZONE-VAV-108,hourly; !- [J]
Output:Meter,InteriorEquipment:Electricity:Zone:ZONE-VAV-112,hourly; !- [J]
Output:Meter:Cumulative,InteriorEquipment:Electricity:Zone:ZONE-VAV-112,hourly; !- [J]
Output:Meter,InteriorEquipment:Electricity:Zone:ZONE-VAV-116,hourly; !- [J]
Output:Meter:Cumulative,InteriorEquipment:Electricity:Zone:ZONE-VAV-116,hourly; !- [J]
Output:Meter,InteriorEquipment:Electricity:Zone:ZONE-VAV-118,hourly; !- [J]
Output:Meter:Cumulative,InteriorEquipment:Electricity:Zone:ZONE-VAV-118,hourly; !- [J]
Output:Meter,InteriorEquipment:Electricity:Zone:ZONE-VAV-119,hourly; !- [J]
Output:Meter:Cumulative,InteriorEquipment:Electricity:Zone:ZONE-VAV-119,hourly; !- [J]
Output:Meter,InteriorEquipment:Electricity:Zone:ZONE-VAV-120,hourly; !- [J]
Output:Meter:Cumulative,InteriorEquipment:Electricity:Zone:ZONE-VAV-120,hourly; !- [J]
Output:Meter,InteriorEquipment:Electricity:Zone:ZONE-VAV-123A,hourly; !- [J]
Output:Meter:Cumulative,InteriorEquipment:Electricity:Zone:ZONE-VAV-123A,hourly; !- [J]
Output:Meter,InteriorEquipment:Electricity:Zone:ZONE-VAV-123B,hourly; !- [J]
Output:Meter:Cumulative,InteriorEquipment:Electricity:Zone:ZONE-VAV-123B,hourly; !- [J]
Output:Meter,InteriorEquipment:Electricity:Zone:ZONE-VAV-127A,hourly; !- [J]
Output:Meter:Cumulative,InteriorEquipment:Electricity:Zone:ZONE-VAV-127A,hourly; !- [J]
Output:Meter,InteriorEquipment:Electricity:Zone:ZONE-VAV-127B,hourly; !- [J]
Output:Meter:Cumulative,InteriorEquipment:Electricity:Zone:ZONE-VAV-127B,hourly; !- [J]
Output:Meter,InteriorEquipment:Electricity:Zone:ZONE-VAV-129,hourly; !- [J]
Output:Meter:Cumulative,InteriorEquipment:Electricity:Zone:ZONE-VAV-129,hourly; !- [J]
Output:Meter,InteriorEquipment:Electricity:Zone:ZONE-VAV-131,hourly; !- [J]
Output:Meter:Cumulative,InteriorEquipment:Electricity:Zone:ZONE-VAV-131,hourly; !- [J]
Output:Meter,InteriorEquipment:Electricity:Zone:ZONE-VAV-133,hourly; !- [J]
Output:Meter:Cumulative,InteriorEquipment:Electricity:Zone:ZONE-VAV-133,hourly; !- [J]
Output:Meter,InteriorEquipment:Electricity:Zone:ZONE-VAV-142,hourly; !- [J]
Output:Meter:Cumulative,InteriorEquipment:Electricity:Zone:ZONE-VAV-142,hourly; !- [J]
Output:Meter,InteriorEquipment:Electricity:Zone:ZONE-VAV-143,hourly; !- [J]
Output:Meter:Cumulative,InteriorEquipment:Electricity:Zone:ZONE-VAV-143,hourly; !- [J]
Output:Meter,InteriorEquipment:Electricity:Zone:ZONE-VAV-150,hourly; !- [J]
Output:Meter:Cumulative,InteriorEquipment:Electricity:Zone:ZONE-VAV-150,hourly; !- [J]
Output:Meter,InteriorEquipment:Electricity:Zone:ZONE-AHU-002,hourly; !- [J]
Output:Meter:Cumulative,InteriorEquipment:Electricity:Zone:ZONE-AHU-002,hourly; !- [J]
Output:Meter,InteriorEquipment:Electricity:Zone:ZONE-AHU-004,hourly; !- [J]
Output:Meter:Cumulative,InteriorEquipment:Electricity:Zone:ZONE-AHU-004,hourly; !- [J]
Output:Meter,InteriorEquipment:Electricity:Zone:ZONE-AHU-005,hourly; !- [J]
Output:Meter:Cumulative,InteriorEquipment:Electricity:Zone:ZONE-AHU-005,hourly; !- [J]
Output:Meter,InteriorEquipment:Electricity:Zone:ZONE-FCU-001,hourly; !- [J]
Output:Meter:Cumulative,InteriorEquipment:Electricity:Zone:ZONE-FCU-001,hourly; !- [J]
Output:Meter,InteriorEquipment:Electricity:Zone:ZONE-FCU-002,hourly; !- [J]
Output:Meter:Cumulative,InteriorEquipment:Electricity:Zone:ZONE-FCU-002,hourly; !- [J]
Output:Meter,InteriorEquipment:Electricity:Zone:ZONE-FCU-003,hourly; !- [J]
Output:Meter:Cumulative,InteriorEquipment:Electricity:Zone:ZONE-FCU-003,hourly; !- [J]
Output:Meter,InteriorEquipment:Electricity:Zone:ZONE-HTR-001,hourly; !- [J]
Output:Meter:Cumulative,InteriorEquipment:Electricity:Zone:ZONE-HTR-001,hourly; !- [J]
Output:Meter,InteriorEquipment:Electricity:Zone:ZONE-HTR-002,hourly; !- [J]
Output:Meter:Cumulative,InteriorEquipment:Electricity:Zone:ZONE-HTR-002,hourly; !- [J]
Output:Meter,InteriorEquipment:Electricity:Zone:ZONE-HTR-003,hourly; !- [J]
Output:Meter:Cumulative,InteriorEquipment:Electricity:Zone:ZONE-HTR-003,hourly; !- [J]
Output:Meter,InteriorEquipment:Electricity:Zone:ZONE-HTR-004,hourly; !- [J]
Output:Meter:Cumulative,InteriorEquipment:Electricity:Zone:ZONE-HTR-004,hourly; !- [J]
Output:Meter,InteriorEquipment:Electricity:Zone:ZONE-VAV-RESTROOM,hourly; !- [J]
Output:Meter:Cumulative,InteriorEquipment:Electricity:Zone:ZONE-VAV-RESTROOM,hourly; !- [J]
Output:Meter,InteriorEquipment:Electricity:Zone:ZONE-VAV-136,hourly; !- [J]
Output:Meter:Cumulative,InteriorEquipment:Electricity:Zone:ZONE-VAV-136,hourly; !- [J]
Output:Meter,EnergyTransfer:Facility,hourly; !- [J]
Output:Meter:Cumulative,EnergyTransfer:Facility,hourly; !- [J]
Output:Meter,EnergyTransfer:Building,hourly; !- [J]
Output:Meter:Cumulative,EnergyTransfer:Building,hourly; !- [J]
Output:Meter,EnergyTransfer:Zone:ZONE-VAV-143,hourly; !- [J]
Output:Meter:Cumulative,EnergyTransfer:Zone:ZONE-VAV-143,hourly; !- [J]
Output:Meter,Heating:EnergyTransfer,hourly; !- [J]
Output:Meter:Cumulative,Heating:EnergyTransfer,hourly; !- [J]
Output:Meter,Heating:EnergyTransfer:Zone:ZONE-VAV-143,hourly; !- [J]
Output:Meter:Cumulative,Heating:EnergyTransfer:Zone:ZONE-VAV-143,hourly; !- [J]
Output:Meter,Cooling:EnergyTransfer,hourly; !- [J]
Output:Meter:Cumulative,Cooling:EnergyTransfer,hourly; !- [J]
Output:Meter,Cooling:EnergyTransfer:Zone:ZONE-VAV-143,hourly; !- [J]
Output:Meter:Cumulative,Cooling:EnergyTransfer:Zone:ZONE-VAV-143,hourly; !- [J]
Output:Meter,EnergyTransfer:Zone:ZONE-VAV-142,hourly; !- [J]
Output:Meter:Cumulative,EnergyTransfer:Zone:ZONE-VAV-142,hourly; !- [J]
Output:Meter,Heating:EnergyTransfer:Zone:ZONE-VAV-142,hourly; !- [J]
Output:Meter:Cumulative,Heating:EnergyTransfer:Zone:ZONE-VAV-142,hourly; !- [J]
Output:Meter,Cooling:EnergyTransfer:Zone:ZONE-VAV-142,hourly; !- [J]
Output:Meter:Cumulative,Cooling:EnergyTransfer:Zone:ZONE-VAV-142,hourly; !- [J]
Output:Meter,EnergyTransfer:Zone:ZONE-HTR-001,hourly; !- [J]
Output:Meter:Cumulative,EnergyTransfer:Zone:ZONE-HTR-001,hourly; !- [J]
Output:Meter,Heating:EnergyTransfer:Zone:ZONE-HTR-001,hourly; !- [J]
Output:Meter:Cumulative,Heating:EnergyTransfer:Zone:ZONE-HTR-001,hourly; !- [J]
Output:Meter,Cooling:EnergyTransfer:Zone:ZONE-HTR-001,hourly; !- [J]
Output:Meter:Cumulative,Cooling:EnergyTransfer:Zone:ZONE-HTR-001,hourly; !- [J]
Output:Meter,EnergyTransfer:Zone:ZONE-VAV-136,hourly; !- [J]
Output:Meter:Cumulative,EnergyTransfer:Zone:ZONE-VAV-136,hourly; !- [J]
Output:Meter,Heating:EnergyTransfer:Zone:ZONE-VAV-136,hourly; !- [J]
Output:Meter:Cumulative,Heating:EnergyTransfer:Zone:ZONE-VAV-136,hourly; !- [J]
Output:Meter,Cooling:EnergyTransfer:Zone:ZONE-VAV-136,hourly; !- [J]
Output:Meter:Cumulative,Cooling:EnergyTransfer:Zone:ZONE-VAV-136,hourly; !- [J]
Output:Meter,EnergyTransfer:Zone:ZONE-VAV-127B,hourly; !- [J]
Output:Meter:Cumulative,EnergyTransfer:Zone:ZONE-VAV-127B,hourly; !- [J]
Output:Meter,Heating:EnergyTransfer:Zone:ZONE-VAV-127B,hourly; !- [J]
Output:Meter:Cumulative,Heating:EnergyTransfer:Zone:ZONE-VAV-127B,hourly; !- [J]
Output:Meter,Cooling:EnergyTransfer:Zone:ZONE-VAV-127B,hourly; !- [J]
Output:Meter:Cumulative,Cooling:EnergyTransfer:Zone:ZONE-VAV-127B,hourly; !- [J]
Output:Meter,EnergyTransfer:Zone:ZONE-VAV-127A,hourly; !- [J]
Output:Meter:Cumulative,EnergyTransfer:Zone:ZONE-VAV-127A,hourly; !- [J]
Output:Meter,Heating:EnergyTransfer:Zone:ZONE-VAV-127A,hourly; !- [J]
Output:Meter:Cumulative,Heating:EnergyTransfer:Zone:ZONE-VAV-127A,hourly; !- [J]
Output:Meter,Cooling:EnergyTransfer:Zone:ZONE-VAV-127A,hourly; !- [J]
Output:Meter:Cumulative,Cooling:EnergyTransfer:Zone:ZONE-VAV-127A,hourly; !- [J]
Output:Meter,EnergyTransfer:Zone:ZONE-VAV-131,hourly; !- [J]
Output:Meter:Cumulative,EnergyTransfer:Zone:ZONE-VAV-131,hourly; !- [J]
Output:Meter,Heating:EnergyTransfer:Zone:ZONE-VAV-131,hourly; !- [J]
Output:Meter:Cumulative,Heating:EnergyTransfer:Zone:ZONE-VAV-131,hourly; !- [J]
Output:Meter,Cooling:EnergyTransfer:Zone:ZONE-VAV-131,hourly; !- [J]
Output:Meter:Cumulative,Cooling:EnergyTransfer:Zone:ZONE-VAV-131,hourly; !- [J]
Output:Meter,EnergyTransfer:Zone:ZONE-VAV-129,hourly; !- [J]
Output:Meter:Cumulative,EnergyTransfer:Zone:ZONE-VAV-129,hourly; !- [J]
Output:Meter,Heating:EnergyTransfer:Zone:ZONE-VAV-129,hourly; !- [J]
Output:Meter:Cumulative,Heating:EnergyTransfer:Zone:ZONE-VAV-129,hourly; !- [J]
Output:Meter,Cooling:EnergyTransfer:Zone:ZONE-VAV-129,hourly; !- [J]
Output:Meter:Cumulative,Cooling:EnergyTransfer:Zone:ZONE-VAV-129,hourly; !- [J]
Output:Meter,EnergyTransfer:Zone:ZONE-VAV-150,hourly; !- [J]
Output:Meter:Cumulative,EnergyTransfer:Zone:ZONE-VAV-150,hourly; !- [J]
Output:Meter,Heating:EnergyTransfer:Zone:ZONE-VAV-150,hourly; !- [J]
Output:Meter:Cumulative,Heating:EnergyTransfer:Zone:ZONE-VAV-150,hourly; !- [J]
Output:Meter,Cooling:EnergyTransfer:Zone:ZONE-VAV-150,hourly; !- [J]
Output:Meter:Cumulative,Cooling:EnergyTransfer:Zone:ZONE-VAV-150,hourly; !- [J]
Output:Meter,EnergyTransfer:Zone:ZONE-VAV-123A,hourly; !- [J]
Output:Meter:Cumulative,EnergyTransfer:Zone:ZONE-VAV-123A,hourly; !- [J]
Output:Meter,Heating:EnergyTransfer:Zone:ZONE-VAV-123A,hourly; !- [J]
Output:Meter:Cumulative,Heating:EnergyTransfer:Zone:ZONE-VAV-123A,hourly; !- [J]
Output:Meter,Cooling:EnergyTransfer:Zone:ZONE-VAV-123A,hourly; !- [J]
Output:Meter:Cumulative,Cooling:EnergyTransfer:Zone:ZONE-VAV-123A,hourly; !- [J]
Output:Meter,EnergyTransfer:Zone:ZONE-VAV-123B,hourly; !- [J]
Output:Meter:Cumulative,EnergyTransfer:Zone:ZONE-VAV-123B,hourly; !- [J]
Output:Meter,Heating:EnergyTransfer:Zone:ZONE-VAV-123B,hourly; !- [J]
Output:Meter:Cumulative,Heating:EnergyTransfer:Zone:ZONE-VAV-123B,hourly; !- [J]
Output:Meter,Cooling:EnergyTransfer:Zone:ZONE-VAV-123B,hourly; !- [J]
Output:Meter:Cumulative,Cooling:EnergyTransfer:Zone:ZONE-VAV-123B,hourly; !- [J]
Output:Meter,EnergyTransfer:Zone:ZONE-AHU-005,hourly; !- [J]
Output:Meter:Cumulative,EnergyTransfer:Zone:ZONE-AHU-005,hourly; !- [J]
Output:Meter,Heating:EnergyTransfer:Zone:ZONE-AHU-005,hourly; !- [J]
Output:Meter:Cumulative,Heating:EnergyTransfer:Zone:ZONE-AHU-005,hourly; !- [J]
Output:Meter,Cooling:EnergyTransfer:Zone:ZONE-AHU-005,hourly; !- [J]
Output:Meter:Cumulative,Cooling:EnergyTransfer:Zone:ZONE-AHU-005,hourly; !- [J]
Output:Meter,EnergyTransfer:Zone:ZONE-VAV-118,hourly; !- [J]
Output:Meter:Cumulative,EnergyTransfer:Zone:ZONE-VAV-118,hourly; !- [J]
Output:Meter,Heating:EnergyTransfer:Zone:ZONE-VAV-118,hourly; !- [J]
Output:Meter:Cumulative,Heating:EnergyTransfer:Zone:ZONE-VAV-118,hourly; !- [J]
Output:Meter,Cooling:EnergyTransfer:Zone:ZONE-VAV-118,hourly; !- [J]
Output:Meter:Cumulative,Cooling:EnergyTransfer:Zone:ZONE-VAV-118,hourly; !- [J]
Output:Meter,EnergyTransfer:Zone:ZONE-VAV-120,hourly; !- [J]
Output:Meter:Cumulative,EnergyTransfer:Zone:ZONE-VAV-120,hourly; !- [J]
Output:Meter,Heating:EnergyTransfer:Zone:ZONE-VAV-120,hourly; !- [J]
Output:Meter:Cumulative,Heating:EnergyTransfer:Zone:ZONE-VAV-120,hourly; !- [J]
Output:Meter,Cooling:EnergyTransfer:Zone:ZONE-VAV-120,hourly; !- [J]
Output:Meter:Cumulative,Cooling:EnergyTransfer:Zone:ZONE-VAV-120,hourly; !- [J]
Output:Meter,EnergyTransfer:Zone:ZONE-VAV-119,hourly; !- [J]
Output:Meter:Cumulative,EnergyTransfer:Zone:ZONE-VAV-119,hourly; !- [J]
Output:Meter,Heating:EnergyTransfer:Zone:ZONE-VAV-119,hourly; !- [J]
Output:Meter:Cumulative,Heating:EnergyTransfer:Zone:ZONE-VAV-119,hourly; !- [J]
Output:Meter,Cooling:EnergyTransfer:Zone:ZONE-VAV-119,hourly; !- [J]
Output:Meter:Cumulative,Cooling:EnergyTransfer:Zone:ZONE-VAV-119,hourly; !- [J]
Output:Meter,EnergyTransfer:Zone:ZONE-VAV-RESTROOM,hourly; !- [J]
Output:Meter:Cumulative,EnergyTransfer:Zone:ZONE-VAV-RESTROOM,hourly; !- [J]
Output:Meter,Heating:EnergyTransfer:Zone:ZONE-VAV-RESTROOM,hourly; !- [J]
Output:Meter:Cumulative,Heating:EnergyTransfer:Zone:ZONE-VAV-RESTROOM,hourly; !- [J]
Output:Meter,Cooling:EnergyTransfer:Zone:ZONE-VAV-RESTROOM,hourly; !- [J]
Output:Meter:Cumulative,Cooling:EnergyTransfer:Zone:ZONE-VAV-RESTROOM,hourly; !- [J]
Output:Meter,EnergyTransfer:Zone:ZONE-AHU-004,hourly; !- [J]
Output:Meter:Cumulative,EnergyTransfer:Zone:ZONE-AHU-004,hourly; !- [J]
Output:Meter,Heating:EnergyTransfer:Zone:ZONE-AHU-004,hourly; !- [J]
Output:Meter:Cumulative,Heating:EnergyTransfer:Zone:ZONE-AHU-004,hourly; !- [J]
Output:Meter,Cooling:EnergyTransfer:Zone:ZONE-AHU-004,hourly; !- [J]
Output:Meter:Cumulative,Cooling:EnergyTransfer:Zone:ZONE-AHU-004,hourly; !- [J]
Output:Meter,EnergyTransfer:Zone:ZONE-VAV-102,hourly; !- [J]
Output:Meter:Cumulative,EnergyTransfer:Zone:ZONE-VAV-102,hourly; !- [J]
Output:Meter,Heating:EnergyTransfer:Zone:ZONE-VAV-102,hourly; !- [J]
Output:Meter:Cumulative,Heating:EnergyTransfer:Zone:ZONE-VAV-102,hourly; !- [J]
Output:Meter,Cooling:EnergyTransfer:Zone:ZONE-VAV-102,hourly; !- [J]
Output:Meter:Cumulative,Cooling:EnergyTransfer:Zone:ZONE-VAV-102,hourly; !- [J]
Output:Meter,EnergyTransfer:Zone:ZONE-FCU-001,hourly; !- [J]
Output:Meter:Cumulative,EnergyTransfer:Zone:ZONE-FCU-001,hourly; !- [J]
Output:Meter,Heating:EnergyTransfer:Zone:ZONE-FCU-001,hourly; !- [J]
Output:Meter:Cumulative,Heating:EnergyTransfer:Zone:ZONE-FCU-001,hourly; !- [J]
Output:Meter,Cooling:EnergyTransfer:Zone:ZONE-FCU-001,hourly; !- [J]
Output:Meter:Cumulative,Cooling:EnergyTransfer:Zone:ZONE-FCU-001,hourly; !- [J]
Output:Meter,EnergyTransfer:Zone:ZONE-AHU-002,hourly; !- [J]
Output:Meter:Cumulative,EnergyTransfer:Zone:ZONE-AHU-002,hourly; !- [J]
Output:Meter,Heating:EnergyTransfer:Zone:ZONE-AHU-002,hourly; !- [J]
Output:Meter:Cumulative,Heating:EnergyTransfer:Zone:ZONE-AHU-002,hourly; !- [J]
Output:Meter,Cooling:EnergyTransfer:Zone:ZONE-AHU-002,hourly; !- [J]
Output:Meter:Cumulative,Cooling:EnergyTransfer:Zone:ZONE-AHU-002,hourly; !- [J]
Output:Meter,EnergyTransfer:Zone:ZONE-VAV-105,hourly; !- [J]
Output:Meter:Cumulative,EnergyTransfer:Zone:ZONE-VAV-105,hourly; !- [J]
Output:Meter,Heating:EnergyTransfer:Zone:ZONE-VAV-105,hourly; !- [J]
Output:Meter:Cumulative,Heating:EnergyTransfer:Zone:ZONE-VAV-105,hourly; !- [J]
Output:Meter,Cooling:EnergyTransfer:Zone:ZONE-VAV-105,hourly; !- [J]
Output:Meter:Cumulative,Cooling:EnergyTransfer:Zone:ZONE-VAV-105,hourly; !- [J]
Output:Meter,EnergyTransfer:Zone:ZONE-FCU-003,hourly; !- [J]
Output:Meter:Cumulative,EnergyTransfer:Zone:ZONE-FCU-003,hourly; !- [J]
Output:Meter,Heating:EnergyTransfer:Zone:ZONE-FCU-003,hourly; !- [J]
Output:Meter:Cumulative,Heating:EnergyTransfer:Zone:ZONE-FCU-003,hourly; !- [J]
Output:Meter,Cooling:EnergyTransfer:Zone:ZONE-FCU-003,hourly; !- [J]
Output:Meter:Cumulative,Cooling:EnergyTransfer:Zone:ZONE-FCU-003,hourly; !- [J]
Output:Meter,EnergyTransfer:Zone:ZONE-VAV-112,hourly; !- [J]
Output:Meter:Cumulative,EnergyTransfer:Zone:ZONE-VAV-112,hourly; !- [J]
Output:Meter,Heating:EnergyTransfer:Zone:ZONE-VAV-112,hourly; !- [J]
Output:Meter:Cumulative,Heating:EnergyTransfer:Zone:ZONE-VAV-112,hourly; !- [J]
Output:Meter,Cooling:EnergyTransfer:Zone:ZONE-VAV-112,hourly; !- [J]
Output:Meter:Cumulative,Cooling:EnergyTransfer:Zone:ZONE-VAV-112,hourly; !- [J]
Output:Meter,EnergyTransfer:Zone:ZONE-HTR-002,hourly; !- [J]
Output:Meter:Cumulative,EnergyTransfer:Zone:ZONE-HTR-002,hourly; !- [J]
Output:Meter,Heating:EnergyTransfer:Zone:ZONE-HTR-002,hourly; !- [J]
Output:Meter:Cumulative,Heating:EnergyTransfer:Zone:ZONE-HTR-002,hourly; !- [J]
Output:Meter,Cooling:EnergyTransfer:Zone:ZONE-HTR-002,hourly; !- [J]
Output:Meter:Cumulative,Cooling:EnergyTransfer:Zone:ZONE-HTR-002,hourly; !- [J]
Output:Meter,EnergyTransfer:Zone:ZONE-HTR-003,hourly; !- [J]
Output:Meter:Cumulative,EnergyTransfer:Zone:ZONE-HTR-003,hourly; !- [J]
Output:Meter,Heating:EnergyTransfer:Zone:ZONE-HTR-003,hourly; !- [J]
Output:Meter:Cumulative,Heating:EnergyTransfer:Zone:ZONE-HTR-003,hourly; !- [J]
Output:Meter,Cooling:EnergyTransfer:Zone:ZONE-HTR-003,hourly; !- [J]
Output:Meter:Cumulative,Cooling:EnergyTransfer:Zone:ZONE-HTR-003,hourly; !- [J]
Output:Meter,EnergyTransfer:Zone:ZONE-VAV-104,hourly; !- [J]
Output:Meter:Cumulative,EnergyTransfer:Zone:ZONE-VAV-104,hourly; !- [J]
Output:Meter,Heating:EnergyTransfer:Zone:ZONE-VAV-104,hourly; !- [J]
Output:Meter:Cumulative,Heating:EnergyTransfer:Zone:ZONE-VAV-104,hourly; !- [J]
Output:Meter,Cooling:EnergyTransfer:Zone:ZONE-VAV-104,hourly; !- [J]
Output:Meter:Cumulative,Cooling:EnergyTransfer:Zone:ZONE-VAV-104,hourly; !- [J]
Output:Meter,EnergyTransfer:Zone:ZONE-VAV-116,hourly; !- [J]
Output:Meter:Cumulative,EnergyTransfer:Zone:ZONE-VAV-116,hourly; !- [J]
Output:Meter,Heating:EnergyTransfer:Zone:ZONE-VAV-116,hourly; !- [J]
Output:Meter:Cumulative,Heating:EnergyTransfer:Zone:ZONE-VAV-116,hourly; !- [J]
Output:Meter,Cooling:EnergyTransfer:Zone:ZONE-VAV-116,hourly; !- [J]
Output:Meter:Cumulative,Cooling:EnergyTransfer:Zone:ZONE-VAV-116,hourly; !- [J]
Output:Meter,EnergyTransfer:Zone:ZONE-VAV-108,hourly; !- [J]
Output:Meter:Cumulative,EnergyTransfer:Zone:ZONE-VAV-108,hourly; !- [J]
Output:Meter,Heating:EnergyTransfer:Zone:ZONE-VAV-108,hourly; !- [J]
Output:Meter:Cumulative,Heating:EnergyTransfer:Zone:ZONE-VAV-108,hourly; !- [J]
Output:Meter,Cooling:EnergyTransfer:Zone:ZONE-VAV-108,hourly; !- [J]
Output:Meter:Cumulative,Cooling:EnergyTransfer:Zone:ZONE-VAV-108,hourly; !- [J]
Output:Meter,EnergyTransfer:Zone:ZONE-FCU-002,hourly; !- [J]
Output:Meter:Cumulative,EnergyTransfer:Zone:ZONE-FCU-002,hourly; !- [J]
Output:Meter,Heating:EnergyTransfer:Zone:ZONE-FCU-002,hourly; !- [J]
Output:Meter:Cumulative,Heating:EnergyTransfer:Zone:ZONE-FCU-002,hourly; !- [J]
Output:Meter,Cooling:EnergyTransfer:Zone:ZONE-FCU-002,hourly; !- [J]
Output:Meter:Cumulative,Cooling:EnergyTransfer:Zone:ZONE-FCU-002,hourly; !- [J]
Output:Meter,EnergyTransfer:Zone:ZONE-HTR-004,hourly; !- [J]
Output:Meter:Cumulative,EnergyTransfer:Zone:ZONE-HTR-004,hourly; !- [J]
Output:Meter,Heating:EnergyTransfer:Zone:ZONE-HTR-004,hourly; !- [J]
Output:Meter:Cumulative,Heating:EnergyTransfer:Zone:ZONE-HTR-004,hourly; !- [J]
Output:Meter,Cooling:EnergyTransfer:Zone:ZONE-HTR-004,hourly; !- [J]
Output:Meter:Cumulative,Cooling:EnergyTransfer:Zone:ZONE-HTR-004,hourly; !- [J]
Output:Meter,EnergyTransfer:Zone:ZONE-VAV-CORRIDOR,hourly; !- [J]
Output:Meter:Cumulative,EnergyTransfer:Zone:ZONE-VAV-CORRIDOR,hourly; !- [J]
Output:Meter,Heating:EnergyTransfer:Zone:ZONE-VAV-CORRIDOR,hourly; !- [J]
Output:Meter:Cumulative,Heating:EnergyTransfer:Zone:ZONE-VAV-CORRIDOR,hourly; !- [J]
Output:Meter,Cooling:EnergyTransfer:Zone:ZONE-VAV-CORRIDOR,hourly; !- [J]
Output:Meter:Cumulative,Cooling:EnergyTransfer:Zone:ZONE-VAV-CORRIDOR,hourly; !- [J]
Output:Meter,EnergyTransfer:Zone:ZONE-VAV-133,hourly; !- [J]
Output:Meter:Cumulative,EnergyTransfer:Zone:ZONE-VAV-133,hourly; !- [J]
Output:Meter,Heating:EnergyTransfer:Zone:ZONE-VAV-133,hourly; !- [J]
Output:Meter:Cumulative,Heating:EnergyTransfer:Zone:ZONE-VAV-133,hourly; !- [J]
Output:Meter,Cooling:EnergyTransfer:Zone:ZONE-VAV-133,hourly; !- [J]
Output:Meter:Cumulative,Cooling:EnergyTransfer:Zone:ZONE-VAV-133,hourly; !- [J]
Output:Meter,EnergyTransfer:Zone:ZONE-VAV-107,hourly; !- [J]
Output:Meter:Cumulative,EnergyTransfer:Zone:ZONE-VAV-107,hourly; !- [J]
Output:Meter,Heating:EnergyTransfer:Zone:ZONE-VAV-107,hourly; !- [J]
Output:Meter:Cumulative,Heating:EnergyTransfer:Zone:ZONE-VAV-107,hourly; !- [J]
Output:Meter,Cooling:EnergyTransfer:Zone:ZONE-VAV-107,hourly; !- [J]
Output:Meter:Cumulative,Cooling:EnergyTransfer:Zone:ZONE-VAV-107,hourly; !- [J]
Output:Meter,ElectricityPurchased:Facility,hourly; !- [J]
Output:Meter:Cumulative,ElectricityPurchased:Facility,hourly; !- [J]
Output:Meter,ElectricityPurchased:Plant,hourly; !- [J]
Output:Meter:Cumulative,ElectricityPurchased:Plant,hourly; !- [J]
Output:Meter,Cogeneration:ElectricityPurchased,hourly; !- [J]
Output:Meter:Cumulative,Cogeneration:ElectricityPurchased,hourly; !- [J]
Output:Meter,ElectricitySurplusSold:Facility,hourly; !- [J]
Output:Meter:Cumulative,ElectricitySurplusSold:Facility,hourly; !- [J]
Output:Meter,ElectricitySurplusSold:Plant,hourly; !- [J]
Output:Meter:Cumulative,ElectricitySurplusSold:Plant,hourly; !- [J]
Output:Meter,Cogeneration:ElectricitySurplusSold,hourly; !- [J]
Output:Meter:Cumulative,Cogeneration:ElectricitySurplusSold,hourly; !- [J]
Output:Meter,ElectricityNet:Facility,hourly; !- [J]
Output:Meter:Cumulative,ElectricityNet:Facility,hourly; !- [J]
Output:Meter,ElectricityNet:Plant,hourly; !- [J]
Output:Meter:Cumulative,ElectricityNet:Plant,hourly; !- [J]
Output:Meter,Cogeneration:ElectricityNet,hourly; !- [J]
Output:Meter:Cumulative,Cogeneration:ElectricityNet,hourly; !- [J]
Output:Meter,EnergyTransfer:HVAC,hourly; !- [J]
Output:Meter:Cumulative,EnergyTransfer:HVAC,hourly; !- [J]
Output:Meter,HeatingCoils:EnergyTransfer,hourly; !- [J]
Output:Meter:Cumulative,HeatingCoils:EnergyTransfer,hourly; !- [J]
Output:Meter,PlantLoopHeatingDemand:Facility,hourly; !- [J]
Output:Meter:Cumulative,PlantLoopHeatingDemand:Facility,hourly; !- [J]
Output:Meter,PlantLoopHeatingDemand:HVAC,hourly; !- [J]
Output:Meter:Cumulative,PlantLoopHeatingDemand:HVAC,hourly; !- [J]
Output:Meter,HeatingCoils:PlantLoopHeatingDemand,hourly; !- [J]
Output:Meter:Cumulative,HeatingCoils:PlantLoopHeatingDemand,hourly; !- [J]
Output:Meter,CoolingCoils:EnergyTransfer,hourly; !- [J]
Output:Meter:Cumulative,CoolingCoils:EnergyTransfer,hourly; !- [J]
Output:Meter,PlantLoopCoolingDemand:Facility,hourly; !- [J]
Output:Meter:Cumulative,PlantLoopCoolingDemand:Facility,hourly; !- [J]
Output:Meter,PlantLoopCoolingDemand:HVAC,hourly; !- [J]
Output:Meter:Cumulative,PlantLoopCoolingDemand:HVAC,hourly; !- [J]
Output:Meter,CoolingCoils:PlantLoopCoolingDemand,hourly; !- [J]
Output:Meter:Cumulative,CoolingCoils:PlantLoopCoolingDemand,hourly; !- [J]
Output:Meter,Electricity:HVAC,hourly; !- [J]
Output:Meter:Cumulative,Electricity:HVAC,hourly; !- [J]
Output:Meter,Fans:Electricity,hourly; !- [J]
Output:Meter:Cumulative,Fans:Electricity,hourly; !- [J]
Output:Meter,Unit Heater Fans:Fans:Electricity,hourly; !- [J]
Output:Meter:Cumulative,Unit Heater Fans:Fans:Electricity,hourly; !- [J]
Output:Meter,General:Fans:Electricity,hourly; !- [J]
Output:Meter:Cumulative,General:Fans:Electricity,hourly; !- [J]
Output:Meter,Heating:Electricity,hourly; !- [J]
Output:Meter:Cumulative,Heating:Electricity,hourly; !- [J]
Output:Meter,HeatRecoveryForHeating:EnergyTransfer,hourly; !- [J]
Output:Meter:Cumulative,HeatRecoveryForHeating:EnergyTransfer,hourly; !- [J]
Output:Meter,HeatRecoveryForCooling:EnergyTransfer,hourly; !- [J]
Output:Meter:Cumulative,HeatRecoveryForCooling:EnergyTransfer,hourly; !- [J]
Output:Meter,HeatRecovery:Electricity,hourly; !- [J]
Output:Meter:Cumulative,HeatRecovery:Electricity,hourly; !- [J]
Output:Meter,Cooling:Electricity,hourly; !- [J]
Output:Meter:Cumulative,Cooling:Electricity,hourly; !- [J]
Output:Meter,EnergyTransfer:Plant,hourly; !- [J]
Output:Meter:Cumulative,EnergyTransfer:Plant,hourly; !- [J]
Output:Meter,Boilers:EnergyTransfer,hourly; !- [J]
Output:Meter:Cumulative,Boilers:EnergyTransfer,hourly; !- [J]
Output:Meter,Gas:Facility,hourly; !- [J]
Output:Meter:Cumulative,Gas:Facility,hourly; !- [J]
Output:Meter,Gas:Plant,hourly; !- [J]
Output:Meter:Cumulative,Gas:Plant,hourly; !- [J]
Output:Meter,Heating:Gas,hourly; !- [J]
Output:Meter:Cumulative,Heating:Gas,hourly; !- [J]
Output:Meter,Boiler:Heating:Gas,hourly; !- [J]
Output:Meter:Cumulative,Boiler:Heating:Gas,hourly; !- [J]
Output:Meter,Electricity:Plant,hourly; !- [J]
Output:Meter:Cumulative,Electricity:Plant,hourly; !- [J]
Output:Meter,Boiler Parasitic:Heating:Electricity,hourly; !- [J]
Output:Meter:Cumulative,Boiler Parasitic:Heating:Electricity,hourly; !- [J]
Output:Meter,DistrictCooling:Facility,hourly; !- [J]
Output:Meter:Cumulative,DistrictCooling:Facility,hourly; !- [J]
Output:Meter,DistrictCooling:Plant,hourly; !- [J]
Output:Meter:Cumulative,DistrictCooling:Plant,hourly; !- [J]
Output:Meter,Cooling:DistrictCooling,hourly; !- [J]
Output:Meter:Cumulative,Cooling:DistrictCooling,hourly; !- [J]
Output:Meter,Pumps:Electricity,hourly; !- [J]
Output:Meter:Cumulative,Pumps:Electricity,hourly; !- [J]
Output:Meter,Carbon Equivalent:Facility,hourly; !- [kg]
Output:Meter:Cumulative,Carbon Equivalent:Facility,hourly; !- [kg]
Output:Meter,CarbonEquivalentEmissions:Carbon Equivalent,hourly; !- [kg]
Output:Meter:Cumulative,CarbonEquivalentEmissions:Carbon Equivalent,hourly; !- [kg]
