Program Version,EnergyPlus, Version 8.5.0-c87e61b44b, YMD=2020.11.05 15:28
! This file shows details about the branches, nodes, and other
! elements of the flow connections.
! This file is intended for use in "debugging" potential problems
! that may also be detected by the program, but may be more easily
! identified by "eye".
! This file is also intended to support software which draws a
! schematic diagram of the HVAC system.
! ===============================================================
! #Nodes,<Number of Unique Nodes>
 #Nodes,323
! <Node>,<NodeNumber>,<Node Name>,<Node Fluid Type>,<# Times Node Referenced After Definition>
 Node,1,ZONE-HTR-001 UNIT HEATER INLET NODE NAME,Air,3
 Node,2,ZONE-HTR-001 UNIT HEATER EXHAUST NODE,Air,3
 Node,3,ZONE-HTR-002 UNIT HEATER INLET NODE NAME,Air,3
 Node,4,ZONE-HTR-002 UNIT HEATER EXHAUST NODE,Air,3
 Node,5,ZONE-HTR-003 UNIT HEATER INLET NODE NAME,Air,3
 Node,6,ZONE-HTR-003 UNIT HEATER EXHAUST NODE,Air,3
 Node,7,ZONE-HTR-004 UNIT HEATER INLET NODE NAME,Air,3
 Node,8,ZONE-HTR-004 UNIT HEATER EXHAUST NODE,Air,3
 Node,9,AHU-001 OAINLET NODE,Air,4
 Node,10,AHU-002 OAINLET NODE,Air,3
 Node,11,AHU-003 OAINLET NODE,Air,4
 Node,12,AHU-004 OAINLET NODE,Air,4
 Node,13,ZONE-VAV-CORRIDOR VAV BOX OUTLET NODE,Air,4
 Node,14,ZONE-VAV-102 VAV BOX OUTLET NODE,Air,4
 Node,15,ZONE-VAV-104 VAV BOX OUTLET NODE,Air,4
 Node,16,ZONE-VAV-105 VAV BOX OUTLET NODE,Air,4
 Node,17,ZONE-VAV-107 VAV BOX OUTLET NODE,Air,4
 Node,18,ZONE-VAV-108 VAV BOX OUTLET NODE,Air,4
 Node,19,ZONE-VAV-112 VAV BOX OUTLET NODE,Air,4
 Node,20,ZONE-VAV-116 VAV BOX OUTLET NODE,Air,4
 Node,21,ZONE-VAV-118 VAV BOX OUTLET NODE,Air,4
 Node,22,ZONE-VAV-119 VAV BOX OUTLET NODE,Air,4
 Node,23,ZONE-VAV-120 VAV BOX OUTLET NODE,Air,4
 Node,24,ZONE-VAV-121 VAV BOX OUTLET NODE,blank,0
 Node,25,ZONE-VAV-123A VAV BOX OUTLET NODE,Air,4
 Node,26,ZONE-VAV-123B VAV BOX OUTLET NODE,Air,4
 Node,27,ZONE-VAV-127A VAV BOX OUTLET NODE,Air,4
 Node,28,ZONE-VAV-127B VAV BOX OUTLET NODE,Air,4
 Node,29,ZONE-VAV-129 VAV BOX OUTLET NODE,Air,4
 Node,30,ZONE-VAV-131 VAV BOX OUTLET NODE,Air,4
 Node,31,ZONE-VAV-136 VAV BOX OUTLET NODE,Air,4
 Node,32,ZONE-VAV-133 VAV BOX OUTLET NODE,Air,4
 Node,33,ZONE-VAV-142 VAV BOX OUTLET NODE,Air,4
 Node,34,ZONE-VAV-143 VAV BOX OUTLET NODE,Air,4
 Node,35,ZONE-VAV-150 VAV BOX OUTLET NODE,Air,4
 Node,36,ZONE-FCU-001 DIRECT AIR INLET NODE NAME,Air,4
 Node,37,ZONE-FCU-002 DIRECT AIR INLET NODE NAME,Air,4
 Node,38,ZONE-FCU-003 DIRECT AIR INLET NODE NAME,Air,4
 Node,39,ZONE-VAV-RESTROOM VAV BOX OUTLET NODE,Air,4
 Node,40,ZONE-AHU-002 DIRECT AIR INLET NODE NAME,Air,4
 Node,41,ZONE-AHU-004 DIRECT AIR INLET NODE NAME,Air,3
 Node,42,ZONE-AHU-005 DIRECT AIR INLET NODE NAME,Air,4
 Node,43,AHU-001 OA COOLCNODE,Air,8
 Node,44,AHU-001 COOLC HEATCNODE,Air,6
 Node,45,AHU-001 HEATC FANNODE,Air,7
 Node,46,AHU-003 OA COOLCNODE,Air,8
 Node,47,AHU-003 COOLC HEATCNODE,Air,6
 Node,48,AHU-003 HEATC FANNODE,Air,7
 Node,49,AHU-004 OA COOLCNODE,Air,8
 Node,50,AHU-004 COOLC HEATCNODE,Air,6
 Node,51,AHU-004 HEATC FANNODE,Air,7
 Node,52,AHU-005 SUPPLY EQUIPMENT INLET NODE,Air,3
 Node,53,AHU-005 OA FANNODE,Air,6
 Node,54,AHU-005 FAN COOLC NODE,Air,5
 Node,55,AHU-005 SUPPLY EQUIPMENT OUTLET NODE,Air,6
 Node,56,ZONE-VAV-136 VAV BOX REHEAT COILDEMAND INLET NODE,Water,1
 Node,57,ZONE-VAV-136 VAV BOX REHEAT COILDEMAND OUTLET NODE,Water,1
 Node,58,AHU-001 SUPPLY EQUIPMENT INLET NODE,Air,4
 Node,59,AHU-001 SUPPLY EQUIPMENT OUTLET NODE,Air,5
 Node,60,AHU-002 SUPPLY EQUIPMENT INLET NODE,Air,3
 Node,61,AHU-002 OA COOLCNODE,Air,5
 Node,62,AHU-002 COOLC HEATCNODE,Air,5
 Node,63,AHU-002 HEATC FANNODE,Air,8
 Node,64,AHU-002 SUPPLY EQUIPMENT OUTLET NODE,Air,9
 Node,65,AHU-003 SUPPLY EQUIPMENT INLET NODE,Air,4
 Node,66,AHU-003 SUPPLY EQUIPMENT OUTLET NODE,Air,5
 Node,67,AHU-004 SUPPLY EQUIPMENT INLET NODE,Air,4
 Node,68,AHU-004 SUPPLY EQUIPMENT OUTLET NODE,Air,5
 Node,69,ZONE-VAV-CORRIDOR VAV BOX REHEAT COILDEMAND INLET NODE,Water,1
 Node,70,ZONE-VAV-CORRIDOR VAV BOX REHEAT COILDEMAND OUTLET NODE,Water,1
 Node,71,ZONE-VAV-102 VAV BOX REHEAT COILDEMAND INLET NODE,Water,1
 Node,72,ZONE-VAV-102 VAV BOX REHEAT COILDEMAND OUTLET NODE,Water,1
 Node,73,ZONE-VAV-104 VAV BOX REHEAT COILDEMAND INLET NODE,Water,1
 Node,74,ZONE-VAV-104 VAV BOX REHEAT COILDEMAND OUTLET NODE,Water,1
 Node,75,ZONE-VAV-105 VAV BOX REHEAT COILDEMAND INLET NODE,Water,1
 Node,76,ZONE-VAV-105 VAV BOX REHEAT COILDEMAND OUTLET NODE,Water,1
 Node,77,ZONE-VAV-107 VAV BOX REHEAT COILDEMAND INLET NODE,Water,1
 Node,78,ZONE-VAV-107 VAV BOX REHEAT COILDEMAND OUTLET NODE,Water,1
 Node,79,ZONE-VAV-108 VAV BOX REHEAT COILDEMAND INLET NODE,Water,1
 Node,80,ZONE-VAV-108 VAV BOX REHEAT COILDEMAND OUTLET NODE,Water,1
 Node,81,ZONE-VAV-112 VAV BOX REHEAT COILDEMAND INLET NODE,Water,1
 Node,82,ZONE-VAV-112 VAV BOX REHEAT COILDEMAND OUTLET NODE,Water,1
 Node,83,ZONE-VAV-116 VAV BOX REHEAT COILDEMAND INLET NODE,Water,1
 Node,84,ZONE-VAV-116 VAV BOX REHEAT COILDEMAND OUTLET NODE,Water,1
 Node,85,ZONE-VAV-118 VAV BOX REHEAT COILDEMAND INLET NODE,Water,1
 Node,86,ZONE-VAV-118 VAV BOX REHEAT COILDEMAND OUTLET NODE,Water,1
 Node,87,ZONE-VAV-119 VAV BOX REHEAT COILDEMAND INLET NODE,Water,1
 Node,88,ZONE-VAV-119 VAV BOX REHEAT COILDEMAND OUTLET NODE,Water,1
 Node,89,ZONE-VAV-120 VAV BOX REHEAT COILDEMAND INLET NODE,Water,1
 Node,90,ZONE-VAV-120 VAV BOX REHEAT COILDEMAND OUTLET NODE,Water,1
 Node,91,ZONE-VAV-123A VAV BOX REHEAT COILDEMAND INLET NODE,Water,1
 Node,92,ZONE-VAV-123A VAV BOX REHEAT COILDEMAND OUTLET NODE,Water,1
 Node,93,ZONE-VAV-123B VAV BOX REHEAT COILDEMAND INLET NODE,Water,1
 Node,94,ZONE-VAV-123B VAV BOX REHEAT COILDEMAND OUTLET NODE,Water,1
 Node,95,ZONE-VAV-127A VAV BOX REHEAT COILDEMAND INLET NODE,Water,1
 Node,96,ZONE-VAV-127A VAV BOX REHEAT COILDEMAND OUTLET NODE,Water,1
 Node,97,ZONE-VAV-127B VAV BOX REHEAT COILDEMAND INLET NODE,Water,1
 Node,98,ZONE-VAV-127B VAV BOX REHEAT COILDEMAND OUTLET NODE,Water,1
 Node,99,ZONE-VAV-129 VAV BOX REHEAT COILDEMAND INLET NODE,Water,1
 Node,100,ZONE-VAV-129 VAV BOX REHEAT COILDEMAND OUTLET NODE,Water,1
 Node,101,ZONE-VAV-131 VAV BOX REHEAT COILDEMAND INLET NODE,Water,1
 Node,102,ZONE-VAV-131 VAV BOX REHEAT COILDEMAND OUTLET NODE,Water,1
 Node,103,ZONE-VAV-133 VAV BOX REHEAT COILDEMAND INLET NODE,Water,1
 Node,104,ZONE-VAV-133 VAV BOX REHEAT COILDEMAND OUTLET NODE,Water,1
 Node,105,ZONE-VAV-142 VAV BOX REHEAT COILDEMAND INLET NODE,Water,1
 Node,106,ZONE-VAV-142 VAV BOX REHEAT COILDEMAND OUTLET NODE,Water,1
 Node,107,ZONE-VAV-143 VAV BOX REHEAT COILDEMAND INLET NODE,Water,1
 Node,108,ZONE-VAV-143 VAV BOX REHEAT COILDEMAND OUTLET NODE,Water,1
 Node,109,ZONE-VAV-150 VAV BOX REHEAT COILDEMAND INLET NODE,Water,1
 Node,110,ZONE-VAV-150 VAV BOX REHEAT COILDEMAND OUTLET NODE,Water,1
 Node,111,AHU-001 HEATCDEMAND INLET NODE,Water,2
 Node,112,AHU-001 HEATCDEMAND OUTLET NODE,Water,1
 Node,113,AHU-002 HEATCDEMAND INLET NODE,Water,2
 Node,114,AHU-002 HEATCDEMAND OUTLET NODE,Water,1
 Node,115,AHU-003 HEATCDEMAND INLET NODE,Water,2
 Node,116,AHU-003 HEATCDEMAND OUTLET NODE,Water,1
 Node,117,AHU-004 HEATCDEMAND INLET NODE,Water,2
 Node,118,AHU-004 HEATCDEMAND OUTLET NODE,Water,1
 Node,119,ZONE-VAV-RESTROOM VAV BOX REHEAT COILDEMAND INLET NODE,Water,1
 Node,120,ZONE-VAV-RESTROOM VAV BOX REHEAT COILDEMAND OUTLET NODE,Water,1
 Node,121,HEATSYS1 DEMAND INLET NODE,Water,2
 Node,122,HEATSYS1 DEMAND INLET PIPE-HEATSYS1 DEMAND MIXER,Water,1
 Node,123,HEATSYS1 DEMAND BYPASS PIPE INLET NODE,Water,1
 Node,124,HEATSYS1 DEMAND BYPASS PIPE OUTLET NODE,Water,1
 Node,125,HEATSYS1 DEMAND MIXER-HEATSYS1 DEMAND OUTLET PIPE,Water,1
 Node,126,HEATSYS1 DEMAND OUTLET NODE,Water,2
 Node,127,HEATSYS1 SUPPLY INLET NODE,Water,2
 Node,128,HEATSYS1 PUMP-HEATSYS1 BOILERNODEVIACONNECTOR,Water,1
 Node,129,HEATSYS1 SUPPLY MIXER-HEATSYS1 SUPPLY OUTLET PIPE,Water,1
 Node,130,HEATSYS1 SUPPLY OUTLET NODE,Water,4
 Node,131,HEATSYS1 PUMP-HEATSYS1 BOILERNODE,Water,1
 Node,132,HEATSYS1 SUPPLY EQUIPMENT OUTLET NODE,Water,2
 Node,133,HEATSYS1 SUPPLY EQUIP BYPASS INLET NODE,Water,1
 Node,134,HEATSYS1 SUPPLY EQUIP BYPASS OUTLET NODE,Water,1
 Node,135,AHU-001 COOLCDEMAND INLET NODE,Water,2
 Node,136,AHU-001 COOLCDEMAND OUTLET NODE,Water,1
 Node,137,AHU-002 COOLCDEMAND INLET NODE,Water,2
 Node,138,AHU-002 COOLCDEMAND OUTLET NODE,Water,1
 Node,139,AHU-003 COOLCDEMAND INLET NODE,Water,2
 Node,140,AHU-003 COOLCDEMAND OUTLET NODE,Water,1
 Node,141,AHU-004 COOLCDEMAND INLET NODE,Water,2
 Node,142,AHU-004 COOLCDEMAND OUTLET NODE,Water,1
 Node,143,COOLSYS1 CHILLER1 PUMP INLET NODE,Water,1
 Node,144,COOLSYS1 PUMP-COOLSYS1 CHILLER1NODE,Water,3
 Node,145,COOLSYS1 SUPPLY EQUIPMENT OUTLET NODE 1,Water,1
 Node,146,COOLSYS1 DEMAND MIXER-COOLSYS1 DEMAND OUTLET PIPE,Water,1
 Node,147,COOLSYS1 DEMAND OUTLET NODE,Water,2
 Node,148,COOLSYS1 SUPPLY INLET NODE,Water,2
 Node,149,COOLSYS1 PUMP-COOLSYS1 CHILLERNODEVIACONNECTOR,Water,1
 Node,150,COOLSYS1 SUPPLY EQUIP BYPASS INLET NODE,Water,1
 Node,151,COOLSYS1 SUPPLY EQUIP BYPASS OUTLET NODE,Water,1
 Node,152,COOLSYS1 SUPPLY MIXER-COOLSYS1 SUPPLY OUTLET PIPE,Water,1
 Node,153,COOLSYS1 SUPPLY OUTLET NODE,Water,4
 Node,154,FCU-001 SUPPLY EQUIPMENT INLET NODE,Air,3
 Node,155,FCU-001 OA FANNODE,Air,6
 Node,156,FCU-001 SUPPLY EQUIPMENT OUTLET NODE,Air,5
 Node,157,FCU-002 SUPPLY EQUIPMENT INLET NODE,Air,3
 Node,158,FCU-002 OA FANNODE,Air,6
 Node,159,FCU-002 SUPPLY EQUIPMENT OUTLET NODE,Air,5
 Node,160,FCU-003 SUPPLY EQUIPMENT INLET NODE,Air,3
 Node,161,FCU-003 OA FANNODE,Air,6
 Node,162,FCU-003 SUPPLY EQUIPMENT OUTLET NODE,Air,5
 Node,163,COOLSYS1 DEMAND INLET NODE,Water,3
 Node,164,COOLSYS1 PUMP SECONDARY-COOLSYS1 DEMAND MIXER,Water,1
 Node,165,FCU-001 OAINLET NODE,Air,2
 Node,166,FCU-002 OAINLET NODE,Air,2
 Node,167,FCU-003 OAINLET NODE,Air,2
 Node,168,AHU-005 OAINLET NODE,Air,2
 Node,169,ZONE-AHU-005 AIR NODE,Air,1
 Node,170,ZONE-FCU-001 AIR NODE,Air,1
 Node,171,ZONE-FCU-002 AIR NODE,Air,1
 Node,172,ZONE-FCU-003 AIR NODE,Air,1
 Node,173,ZONE-AHU-002 AIR NODE,Air,1
 Node,174,FCU-001 HEATC FANNODE,Air,2
 Node,175,FCU-001 FAN COOLC NODE,Air,2
 Node,176,FCU-002 HEATC FANNODE,Air,2
 Node,177,FCU-002 FAN COOLC NODE,Air,2
 Node,178,FCU-003 HEATC FANNODE,Air,2
 Node,179,FCU-003 FAN COOLC NODE,Air,2
 Node,180,AHU-001 HEAT RECOVERY OUTLET NODE,Air,2
 Node,181,AHU-003 HEAT RECOVERY OUTLET NODE,Air,2
 Node,182,AHU-004 HEAT RECOVERY OUTLET NODE,Air,2
 Node,183,ZONE-VAV-102 AIR NODE,Air,0
 Node,184,ZONE-VAV-102 RETURN AIR NODE,Air,1
 Node,185,ZONE-VAV-104 AIR NODE,Air,0
 Node,186,ZONE-VAV-104 RETURN AIR NODE,Air,1
 Node,187,ZONE-VAV-105 AIR NODE,Air,0
 Node,188,ZONE-VAV-105 RETURN AIR NODE,Air,1
 Node,189,ZONE-VAV-107 AIR NODE,Air,0
 Node,190,ZONE-VAV-107 RETURN AIR NODE,Air,1
 Node,191,ZONE-VAV-108 AIR NODE,Air,0
 Node,192,ZONE-VAV-108 RETURN AIR NODE,Air,1
 Node,193,ZONE-VAV-112 AIR NODE,Air,0
 Node,194,ZONE-VAV-112 RETURN AIR NODE,Air,1
 Node,195,ZONE-VAV-116 AIR NODE,Air,0
 Node,196,ZONE-VAV-116 RETURN AIR NODE,Air,1
 Node,197,ZONE-VAV-118 AIR NODE,Air,0
 Node,198,ZONE-VAV-118 RETURN AIR NODE,Air,1
 Node,199,ZONE-VAV-119 AIR NODE,Air,0
 Node,200,ZONE-VAV-119 RETURN AIR NODE,Air,1
 Node,201,ZONE-VAV-120 AIR NODE,Air,0
 Node,202,ZONE-VAV-120 RETURN AIR NODE,Air,1
 Node,203,ZONE-VAV-CORRIDOR AIR NODE,Air,0
 Node,204,ZONE-VAV-CORRIDOR RETURN AIR NODE,Air,1
 Node,205,ZONE-VAV-123A AIR NODE,Air,0
 Node,206,ZONE-VAV-123A RETURN AIR NODE,Air,1
 Node,207,ZONE-VAV-123B AIR NODE,Air,0
 Node,208,ZONE-VAV-123B RETURN AIR NODE,Air,1
 Node,209,ZONE-VAV-127A AIR NODE,Air,0
 Node,210,ZONE-VAV-127A RETURN AIR NODE,Air,1
 Node,211,ZONE-VAV-127B AIR NODE,Air,0
 Node,212,ZONE-VAV-127B RETURN AIR NODE,Air,1
 Node,213,ZONE-VAV-129 AIR NODE,Air,0
 Node,214,ZONE-VAV-129 RETURN AIR NODE,Air,1
 Node,215,ZONE-VAV-131 AIR NODE,Air,0
 Node,216,ZONE-VAV-131 RETURN AIR NODE,Air,1
 Node,217,ZONE-VAV-136 AIR NODE,Air,0
 Node,218,ZONE-VAV-136 RETURN AIR NODE,Air,1
 Node,219,ZONE-VAV-133 AIR NODE,Air,0
 Node,220,ZONE-VAV-133 RETURN AIR NODE,Air,1
 Node,221,ZONE-VAV-142 AIR NODE,Air,0
 Node,222,ZONE-VAV-142 RETURN AIR NODE,Air,1
 Node,223,ZONE-VAV-143 AIR NODE,Air,0
 Node,224,ZONE-VAV-143 RETURN AIR NODE,Air,1
 Node,225,ZONE-VAV-150 AIR NODE,Air,0
 Node,226,ZONE-VAV-150 RETURN AIR NODE,Air,1
 Node,227,ZONE-AHU-002 RETURN AIR NODE,Air,1
 Node,228,ZONE-AHU-004 AIR NODE,Air,0
 Node,229,ZONE-AHU-004 RETURN AIR NODE,Air,1
 Node,230,ZONE-AHU-005 RETURN AIR NODE,Air,1
 Node,231,ZONE-FCU-001 RETURN AIR NODE,Air,1
 Node,232,ZONE-FCU-002 RETURN AIR NODE,Air,1
 Node,233,ZONE-FCU-003 RETURN AIR NODE,Air,1
 Node,234,ZONE-HTR-001 AIR NODE,Air,0
 Node,235,ZONE-HTR-001 RETURN AIR NODE,Air,0
 Node,236,ZONE-HTR-002 AIR NODE,Air,0
 Node,237,ZONE-HTR-002 RETURN AIR NODE,Air,0
 Node,238,ZONE-HTR-003 AIR NODE,Air,0
 Node,239,ZONE-HTR-003 RETURN AIR NODE,Air,0
 Node,240,ZONE-HTR-004 AIR NODE,Air,0
 Node,241,ZONE-HTR-004 RETURN AIR NODE,Air,0
 Node,242,ZONE-VAV-RESTROOM AIR NODE,Air,0
 Node,243,ZONE-VAV-RESTROOM RETURN AIR NODE,Air,1
 Node,244,AHU-001 ZONE EQUIPMENT INLET NODE,Air,2
 Node,245,AHU-002 ZONE EQUIPMENT INLET NODE,Air,2
 Node,246,AHU-003 ZONE EQUIPMENT INLET NODE,Air,2
 Node,247,AHU-004 ZONE EQUIPMENT INLET NODE,Air,2
 Node,248,AHU-005 ZONE EQUIPMENT INLET NODE,Air,2
 Node,249,FCU-001 ZONE EQUIPMENT INLET NODE,Air,2
 Node,250,FCU-002 ZONE EQUIPMENT INLET NODE,Air,2
 Node,251,FCU-003 ZONE EQUIPMENT INLET NODE,Air,2
 Node,252,AHU-001 ZONE EQUIPMENT OUTLET NODE,Air,2
 Node,253,AHU-002 ZONE EQUIPMENT OUTLET NODE,Air,2
 Node,254,AHU-003 ZONE EQUIPMENT OUTLET NODE,Air,2
 Node,255,AHU-004 ZONE EQUIPMENT OUTLET NODE,Air,2
 Node,256,AHU-005 ZONE EQUIPMENT OUTLET NODE,Air,2
 Node,257,FCU-001 ZONE EQUIPMENT OUTLET NODE,Air,2
 Node,258,FCU-002 ZONE EQUIPMENT OUTLET NODE,Air,2
 Node,259,FCU-003 ZONE EQUIPMENT OUTLET NODE,Air,2
 Node,260,ZONE-VAV-CORRIDOR VAV BOX INLET NODE,Air,1
 Node,261,ZONE-VAV-102 VAV BOX INLET NODE,Air,1
 Node,262,ZONE-VAV-118 VAV BOX INLET NODE,Air,1
 Node,263,ZONE-VAV-119 VAV BOX INLET NODE,Air,1
 Node,264,ZONE-VAV-120 VAV BOX INLET NODE,Air,1
 Node,265,ZONE-VAV-123A VAV BOX INLET NODE,Air,1
 Node,266,ZONE-VAV-123B VAV BOX INLET NODE,Air,1
 Node,267,ZONE-VAV-127A VAV BOX INLET NODE,Air,1
 Node,268,ZONE-VAV-127B VAV BOX INLET NODE,Air,1
 Node,269,ZONE-VAV-129 VAV BOX INLET NODE,Air,1
 Node,270,ZONE-VAV-131 VAV BOX INLET NODE,Air,1
 Node,271,ZONE-VAV-136 VAV BOX INLET NODE,Air,1
 Node,272,ZONE-VAV-133 VAV BOX INLET NODE,Air,1
 Node,273,ZONE-VAV-142 VAV BOX INLET NODE,Air,1
 Node,274,ZONE-VAV-143 VAV BOX INLET NODE,Air,1
 Node,275,ZONE-VAV-150 VAV BOX INLET NODE,Air,1
 Node,276,ZONE-VAV-RESTROOM VAV BOX INLET NODE,Air,1
 Node,277,ZONE-VAV-104 VAV BOX INLET NODE,Air,1
 Node,278,ZONE-VAV-105 VAV BOX INLET NODE,Air,1
 Node,279,ZONE-VAV-107 VAV BOX INLET NODE,Air,1
 Node,280,ZONE-VAV-108 VAV BOX INLET NODE,Air,1
 Node,281,ZONE-VAV-112 VAV BOX INLET NODE,Air,1
 Node,282,ZONE-VAV-116 VAV BOX INLET NODE,Air,1
 Node,283,ZONE-VAV-CORRIDOR VAV BOX DAMPER NODE,Air,1
 Node,284,ZONE-VAV-102 VAV BOX DAMPER NODE,Air,1
 Node,285,ZONE-VAV-104 VAV BOX DAMPER NODE,Air,1
 Node,286,ZONE-VAV-105 VAV BOX DAMPER NODE,Air,1
 Node,287,ZONE-VAV-107 VAV BOX DAMPER NODE,Air,1
 Node,288,ZONE-VAV-108 VAV BOX DAMPER NODE,Air,1
 Node,289,ZONE-VAV-112 VAV BOX DAMPER NODE,Air,1
 Node,290,ZONE-VAV-116 VAV BOX DAMPER NODE,Air,1
 Node,291,ZONE-VAV-118 VAV BOX DAMPER NODE,Air,1
 Node,292,ZONE-VAV-119 VAV BOX DAMPER NODE,Air,1
 Node,293,ZONE-VAV-120 VAV BOX DAMPER NODE,Air,1
 Node,294,ZONE-VAV-123A VAV BOX DAMPER NODE,Air,1
 Node,295,ZONE-VAV-123B VAV BOX DAMPER NODE,Air,1
 Node,296,ZONE-VAV-127A VAV BOX DAMPER NODE,Air,1
 Node,297,ZONE-VAV-127B VAV BOX DAMPER NODE,Air,1
 Node,298,ZONE-VAV-129 VAV BOX DAMPER NODE,Air,1
 Node,299,ZONE-VAV-131 VAV BOX DAMPER NODE,Air,1
 Node,300,ZONE-VAV-136 VAV BOX DAMPER NODE,Air,1
 Node,301,ZONE-VAV-133 VAV BOX DAMPER NODE,Air,1
 Node,302,ZONE-VAV-142 VAV BOX DAMPER NODE,Air,1
 Node,303,ZONE-VAV-143 VAV BOX DAMPER NODE,Air,1
 Node,304,ZONE-VAV-150 VAV BOX DAMPER NODE,Air,1
 Node,305,ZONE-VAV-RESTROOM VAV BOX DAMPER NODE,Air,1
 Node,306,ZONE-HTR-001 UNIT HEATER POST FAN NODE,Air,1
 Node,307,ZONE-HTR-002 UNIT HEATER POST FAN NODE,Air,1
 Node,308,ZONE-HTR-003 UNIT HEATER POST FAN NODE,Air,1
 Node,309,ZONE-HTR-004 UNIT HEATER POST FAN NODE,Air,1
 Node,310,AHU-001 OARELIEF NODE,Air,2
 Node,311,AHU-002 OARELIEF NODE,Air,1
 Node,312,AHU-003 OARELIEF NODE,Air,2
 Node,313,AHU-004 OARELIEF NODE,Air,2
 Node,314,AHU-005 OARELIEF NODE,Air,1
 Node,315,FCU-001 OARELIEF NODE,Air,1
 Node,316,FCU-002 OARELIEF NODE,Air,1
 Node,317,FCU-003 OARELIEF NODE,Air,1
 Node,318,AHU-001 HEAT RECOVERY SECONDARY OUTLET NODE,Air,0
 Node,319,AHU-003 HEAT RECOVERY SECONDARY OUTLET NODE,Air,0
 Node,320,AHU-004 HEAT RECOVERY SECONDARY OUTLET NODE,Air,0
 Node,321,FCU-001 COOLC HEATCNODE,Air,1
 Node,322,FCU-002 COOLC HEATCNODE,Air,1
 Node,323,FCU-003 COOLC HEATCNODE,Air,1
! ===============================================================
! Suspicious nodes have 0 references.  It is normal for some nodes, however.
! Listing nodes with 0 references (culled from previous list):
! <Suspicious Node>,<NodeNumber>,<Node Name>,<Node Fluid Type>,<# Times Node Referenced After Definition>
 Suspicious Node,24,ZONE-VAV-121 VAV BOX OUTLET NODE,blank,0
 Suspicious Node,183,ZONE-VAV-102 AIR NODE,Air,0
 Suspicious Node,185,ZONE-VAV-104 AIR NODE,Air,0
 Suspicious Node,187,ZONE-VAV-105 AIR NODE,Air,0
 Suspicious Node,189,ZONE-VAV-107 AIR NODE,Air,0
 Suspicious Node,191,ZONE-VAV-108 AIR NODE,Air,0
 Suspicious Node,193,ZONE-VAV-112 AIR NODE,Air,0
 Suspicious Node,195,ZONE-VAV-116 AIR NODE,Air,0
 Suspicious Node,197,ZONE-VAV-118 AIR NODE,Air,0
 Suspicious Node,199,ZONE-VAV-119 AIR NODE,Air,0
 Suspicious Node,201,ZONE-VAV-120 AIR NODE,Air,0
 Suspicious Node,203,ZONE-VAV-CORRIDOR AIR NODE,Air,0
 Suspicious Node,205,ZONE-VAV-123A AIR NODE,Air,0
 Suspicious Node,207,ZONE-VAV-123B AIR NODE,Air,0
 Suspicious Node,209,ZONE-VAV-127A AIR NODE,Air,0
 Suspicious Node,211,ZONE-VAV-127B AIR NODE,Air,0
 Suspicious Node,213,ZONE-VAV-129 AIR NODE,Air,0
 Suspicious Node,215,ZONE-VAV-131 AIR NODE,Air,0
 Suspicious Node,217,ZONE-VAV-136 AIR NODE,Air,0
 Suspicious Node,219,ZONE-VAV-133 AIR NODE,Air,0
 Suspicious Node,221,ZONE-VAV-142 AIR NODE,Air,0
 Suspicious Node,223,ZONE-VAV-143 AIR NODE,Air,0
 Suspicious Node,225,ZONE-VAV-150 AIR NODE,Air,0
 Suspicious Node,228,ZONE-AHU-004 AIR NODE,Air,0
 Suspicious Node,234,ZONE-HTR-001 AIR NODE,Air,0
 Suspicious Node,235,ZONE-HTR-001 RETURN AIR NODE,Air,0
 Suspicious Node,236,ZONE-HTR-002 AIR NODE,Air,0
 Suspicious Node,237,ZONE-HTR-002 RETURN AIR NODE,Air,0
 Suspicious Node,238,ZONE-HTR-003 AIR NODE,Air,0
 Suspicious Node,239,ZONE-HTR-003 RETURN AIR NODE,Air,0
 Suspicious Node,240,ZONE-HTR-004 AIR NODE,Air,0
 Suspicious Node,241,ZONE-HTR-004 RETURN AIR NODE,Air,0
 Suspicious Node,242,ZONE-VAV-RESTROOM AIR NODE,Air,0
 Suspicious Node,318,AHU-001 HEAT RECOVERY SECONDARY OUTLET NODE,Air,0
 Suspicious Node,319,AHU-003 HEAT RECOVERY SECONDARY OUTLET NODE,Air,0
 Suspicious Node,320,AHU-004 HEAT RECOVERY SECONDARY OUTLET NODE,Air,0
! ===============================================================
! <#Branch Lists>,<Number of Branch Lists>
 #Branch Lists,12
! <Branch List>,<Branch List Count>,<Branch List Name>,<Loop Name>,<Loop Type>,<Number of Branches>
! <Branch>,<Branch Count>,<Branch Name>,<Loop Name>,<Loop Type>,<Branch Inlet Node Name>,<Branch Outlet Node Name>
 Branch List,1,FCU-001 AIR LOOP BRANCHES,FCU-001,Air,1
   Branch,1,FCU-001 AIR LOOP BRANCH,FCU-001,Air,FCU-001 SUPPLY EQUIPMENT INLET NODE,FCU-001 SUPPLY EQUIPMENT OUTLET NODE
 Branch List,2,FCU-002 AIR LOOP BRANCHES,FCU-002,Air,1
   Branch,1,FCU-002 AIR LOOP BRANCH,FCU-002,Air,FCU-002 SUPPLY EQUIPMENT INLET NODE,FCU-002 SUPPLY EQUIPMENT OUTLET NODE
 Branch List,3,FCU-003 AIR LOOP BRANCHES,FCU-003,Air,1
   Branch,1,FCU-003 AIR LOOP BRANCH,FCU-003,Air,FCU-003 SUPPLY EQUIPMENT INLET NODE,FCU-003 SUPPLY EQUIPMENT OUTLET NODE
 Branch List,4,HEATSYS1 DEMAND BRANCHES,HEATSYS1,Plant Demand,30
   Branch,1,HEATSYS1 DEMAND INLET BRANCH,HEATSYS1,Plant Demand,HEATSYS1 DEMAND INLET NODE,HEATSYS1 DEMAND INLET PIPE-HEATSYS1 DEMAND MIXER
   Branch,2,HEATSYS1 DEMAND LOAD BRANCH 1,HEATSYS1,Plant Demand,ZONE-VAV-CORRIDOR VAV BOX REHEAT COILDEMAND INLET NODE,ZONE-VAV-CORRIDOR VAV BOX REHEAT COILDEMAND OUTLET NODE
   Branch,3,HEATSYS1 DEMAND LOAD BRANCH 2,HEATSYS1,Plant Demand,ZONE-VAV-102 VAV BOX REHEAT COILDEMAND INLET NODE,ZONE-VAV-102 VAV BOX REHEAT COILDEMAND OUTLET NODE
   Branch,4,HEATSYS1 DEMAND LOAD BRANCH 3,HEATSYS1,Plant Demand,ZONE-VAV-104 VAV BOX REHEAT COILDEMAND INLET NODE,ZONE-VAV-104 VAV BOX REHEAT COILDEMAND OUTLET NODE
   Branch,5,HEATSYS1 DEMAND LOAD BRANCH 4,HEATSYS1,Plant Demand,ZONE-VAV-105 VAV BOX REHEAT COILDEMAND INLET NODE,ZONE-VAV-105 VAV BOX REHEAT COILDEMAND OUTLET NODE
   Branch,6,HEATSYS1 DEMAND LOAD BRANCH 5,HEATSYS1,Plant Demand,ZONE-VAV-107 VAV BOX REHEAT COILDEMAND INLET NODE,ZONE-VAV-107 VAV BOX REHEAT COILDEMAND OUTLET NODE
   Branch,7,HEATSYS1 DEMAND LOAD BRANCH 6,HEATSYS1,Plant Demand,ZONE-VAV-108 VAV BOX REHEAT COILDEMAND INLET NODE,ZONE-VAV-108 VAV BOX REHEAT COILDEMAND OUTLET NODE
   Branch,8,HEATSYS1 DEMAND LOAD BRANCH 7,HEATSYS1,Plant Demand,ZONE-VAV-112 VAV BOX REHEAT COILDEMAND INLET NODE,ZONE-VAV-112 VAV BOX REHEAT COILDEMAND OUTLET NODE
   Branch,9,HEATSYS1 DEMAND LOAD BRANCH 8,HEATSYS1,Plant Demand,ZONE-VAV-116 VAV BOX REHEAT COILDEMAND INLET NODE,ZONE-VAV-116 VAV BOX REHEAT COILDEMAND OUTLET NODE
   Branch,10,HEATSYS1 DEMAND LOAD BRANCH 9,HEATSYS1,Plant Demand,ZONE-VAV-118 VAV BOX REHEAT COILDEMAND INLET NODE,ZONE-VAV-118 VAV BOX REHEAT COILDEMAND OUTLET NODE
   Branch,11,HEATSYS1 DEMAND LOAD BRANCH 10,HEATSYS1,Plant Demand,ZONE-VAV-119 VAV BOX REHEAT COILDEMAND INLET NODE,ZONE-VAV-119 VAV BOX REHEAT COILDEMAND OUTLET NODE
   Branch,12,HEATSYS1 DEMAND LOAD BRANCH 11,HEATSYS1,Plant Demand,ZONE-VAV-120 VAV BOX REHEAT COILDEMAND INLET NODE,ZONE-VAV-120 VAV BOX REHEAT COILDEMAND OUTLET NODE
   Branch,13,HEATSYS1 DEMAND LOAD BRANCH 13,HEATSYS1,Plant Demand,ZONE-VAV-123A VAV BOX REHEAT COILDEMAND INLET NODE,ZONE-VAV-123A VAV BOX REHEAT COILDEMAND OUTLET NODE
   Branch,14,HEATSYS1 DEMAND LOAD BRANCH 14,HEATSYS1,Plant Demand,ZONE-VAV-123B VAV BOX REHEAT COILDEMAND INLET NODE,ZONE-VAV-123B VAV BOX REHEAT COILDEMAND OUTLET NODE
   Branch,15,HEATSYS1 DEMAND LOAD BRANCH 15,HEATSYS1,Plant Demand,ZONE-VAV-127A VAV BOX REHEAT COILDEMAND INLET NODE,ZONE-VAV-127A VAV BOX REHEAT COILDEMAND OUTLET NODE
   Branch,16,HEATSYS1 DEMAND LOAD BRANCH 16,HEATSYS1,Plant Demand,ZONE-VAV-127B VAV BOX REHEAT COILDEMAND INLET NODE,ZONE-VAV-127B VAV BOX REHEAT COILDEMAND OUTLET NODE
   Branch,17,HEATSYS1 DEMAND LOAD BRANCH 17,HEATSYS1,Plant Demand,ZONE-VAV-129 VAV BOX REHEAT COILDEMAND INLET NODE,ZONE-VAV-129 VAV BOX REHEAT COILDEMAND OUTLET NODE
   Branch,18,HEATSYS1 DEMAND LOAD BRANCH 18,HEATSYS1,Plant Demand,ZONE-VAV-131 VAV BOX REHEAT COILDEMAND INLET NODE,ZONE-VAV-131 VAV BOX REHEAT COILDEMAND OUTLET NODE
   Branch,19,HEATSYS1 DEMAND LOAD BRANCH 19,HEATSYS1,Plant Demand,ZONE-VAV-136 VAV BOX REHEAT COILDEMAND INLET NODE,ZONE-VAV-136 VAV BOX REHEAT COILDEMAND OUTLET NODE
   Branch,20,HEATSYS1 DEMAND LOAD BRANCH 20,HEATSYS1,Plant Demand,ZONE-VAV-133 VAV BOX REHEAT COILDEMAND INLET NODE,ZONE-VAV-133 VAV BOX REHEAT COILDEMAND OUTLET NODE
   Branch,21,HEATSYS1 DEMAND LOAD BRANCH 21,HEATSYS1,Plant Demand,ZONE-VAV-142 VAV BOX REHEAT COILDEMAND INLET NODE,ZONE-VAV-142 VAV BOX REHEAT COILDEMAND OUTLET NODE
   Branch,22,HEATSYS1 DEMAND LOAD BRANCH 22,HEATSYS1,Plant Demand,ZONE-VAV-143 VAV BOX REHEAT COILDEMAND INLET NODE,ZONE-VAV-143 VAV BOX REHEAT COILDEMAND OUTLET NODE
   Branch,23,HEATSYS1 DEMAND LOAD BRANCH 23,HEATSYS1,Plant Demand,ZONE-VAV-150 VAV BOX REHEAT COILDEMAND INLET NODE,ZONE-VAV-150 VAV BOX REHEAT COILDEMAND OUTLET NODE
   Branch,24,HEATSYS1 DEMAND LOAD BRANCH 27,HEATSYS1,Plant Demand,AHU-001 HEATCDEMAND INLET NODE,AHU-001 HEATCDEMAND OUTLET NODE
   Branch,25,HEATSYS1 DEMAND LOAD BRANCH 28,HEATSYS1,Plant Demand,AHU-002 HEATCDEMAND INLET NODE,AHU-002 HEATCDEMAND OUTLET NODE
   Branch,26,HEATSYS1 DEMAND LOAD BRANCH 29,HEATSYS1,Plant Demand,AHU-003 HEATCDEMAND INLET NODE,AHU-003 HEATCDEMAND OUTLET NODE
   Branch,27,HEATSYS1 DEMAND LOAD BRANCH 30,HEATSYS1,Plant Demand,AHU-004 HEATCDEMAND INLET NODE,AHU-004 HEATCDEMAND OUTLET NODE
   Branch,28,HEATSYS1 DEMAND LOAD BRANCH 32,HEATSYS1,Plant Demand,ZONE-VAV-RESTROOM VAV BOX REHEAT COILDEMAND INLET NODE,ZONE-VAV-RESTROOM VAV BOX REHEAT COILDEMAND OUTLET NODE
   Branch,29,HEATSYS1 DEMAND BYPASS BRANCH,HEATSYS1,Plant Demand,HEATSYS1 DEMAND BYPASS PIPE INLET NODE,HEATSYS1 DEMAND BYPASS PIPE OUTLET NODE
   Branch,30,HEATSYS1 DEMAND OUTLET BRANCH,HEATSYS1,Plant Demand,HEATSYS1 DEMAND MIXER-HEATSYS1 DEMAND OUTLET PIPE,HEATSYS1 DEMAND OUTLET NODE
 Branch List,5,HEATSYS1 SUPPLY BRANCHES,HEATSYS1,Plant Supply,4
   Branch,1,HEATSYS1 SUPPLY INLET BRANCH,HEATSYS1,Plant Supply,HEATSYS1 SUPPLY INLET NODE,HEATSYS1 PUMP-HEATSYS1 BOILERNODEVIACONNECTOR
   Branch,2,HEATSYS1 SUPPLY EQUIPMENT BRANCH,HEATSYS1,Plant Supply,HEATSYS1 PUMP-HEATSYS1 BOILERNODE,HEATSYS1 SUPPLY EQUIPMENT OUTLET NODE
   Branch,3,HEATSYS1 SUPPLY EQUIPMENT BYPASS BRANCH,HEATSYS1,Plant Supply,HEATSYS1 SUPPLY EQUIP BYPASS INLET NODE,HEATSYS1 SUPPLY EQUIP BYPASS OUTLET NODE
   Branch,4,HEATSYS1 SUPPLY OUTLET BRANCH,HEATSYS1,Plant Supply,HEATSYS1 SUPPLY MIXER-HEATSYS1 SUPPLY OUTLET PIPE,HEATSYS1 SUPPLY OUTLET NODE
 Branch List,6,AHU-001 AIR LOOP BRANCHES,AHU-001,Air,1
   Branch,1,AHU-001 AIR LOOP MAIN BRANCH,AHU-001,Air,AHU-001 SUPPLY EQUIPMENT INLET NODE,AHU-001 SUPPLY EQUIPMENT OUTLET NODE
 Branch List,7,AHU-002 AIR LOOP BRANCHES,AHU-002,Air,1
   Branch,1,AHU-002 AIR LOOP MAIN BRANCH,AHU-002,Air,AHU-002 SUPPLY EQUIPMENT INLET NODE,AHU-002 SUPPLY EQUIPMENT OUTLET NODE
 Branch List,8,AHU-003 AIR LOOP BRANCHES,AHU-003,Air,1
   Branch,1,AHU-003 AIR LOOP MAIN BRANCH,AHU-003,Air,AHU-003 SUPPLY EQUIPMENT INLET NODE,AHU-003 SUPPLY EQUIPMENT OUTLET NODE
 Branch List,9,AHU-004 AIR LOOP BRANCHES,AHU-004,Air,1
   Branch,1,AHU-004 AIR LOOP MAIN BRANCH,AHU-004,Air,AHU-004 SUPPLY EQUIPMENT INLET NODE,AHU-004 SUPPLY EQUIPMENT OUTLET NODE
 Branch List,10,AHU-005 AIR LOOP BRANCHES,AHU-005,Air,1
   Branch,1,AHU-005 AIR LOOP MAIN BRANCH,AHU-005,Air,AHU-005 SUPPLY EQUIPMENT INLET NODE,AHU-005 SUPPLY EQUIPMENT OUTLET NODE
 Branch List,11,COOLSYS1 DEMAND BRANCHES,COOLSYS1,Plant Demand,6
   Branch,1,COOLSYS1 DEMAND INLET BRANCH,COOLSYS1,Plant Demand,COOLSYS1 DEMAND INLET NODE,COOLSYS1 PUMP SECONDARY-COOLSYS1 DEMAND MIXER
   Branch,2,COOLSYS1 DEMAND LOAD BRANCH 1,COOLSYS1,Plant Demand,AHU-001 COOLCDEMAND INLET NODE,AHU-001 COOLCDEMAND OUTLET NODE
   Branch,3,COOLSYS1 DEMAND LOAD BRANCH 2,COOLSYS1,Plant Demand,AHU-002 COOLCDEMAND INLET NODE,AHU-002 COOLCDEMAND OUTLET NODE
   Branch,4,COOLSYS1 DEMAND LOAD BRANCH 3,COOLSYS1,Plant Demand,AHU-003 COOLCDEMAND INLET NODE,AHU-003 COOLCDEMAND OUTLET NODE
   Branch,5,COOLSYS1 DEMAND LOAD BRANCH 4,COOLSYS1,Plant Demand,AHU-004 COOLCDEMAND INLET NODE,AHU-004 COOLCDEMAND OUTLET NODE
   Branch,6,COOLSYS1 DEMAND OUTLET BRANCH,COOLSYS1,Plant Demand,COOLSYS1 DEMAND MIXER-COOLSYS1 DEMAND OUTLET PIPE,COOLSYS1 DEMAND OUTLET NODE
 Branch List,12,COOLSYS1 SUPPLY BRANCHES,COOLSYS1,Plant Supply,4
   Branch,1,COOLSYS1 SUPPLY INLET BRANCH,COOLSYS1,Plant Supply,COOLSYS1 SUPPLY INLET NODE,COOLSYS1 PUMP-COOLSYS1 CHILLERNODEVIACONNECTOR
   Branch,2,COOLSYS1 SUPPLY EQUIPMENT BRANCH 1,COOLSYS1,Plant Supply,COOLSYS1 CHILLER1 PUMP INLET NODE,COOLSYS1 SUPPLY EQUIPMENT OUTLET NODE 1
   Branch,3,COOLSYS1 SUPPLY EQUIPMENT BYPASS BRANCH,COOLSYS1,Plant Supply,COOLSYS1 SUPPLY EQUIP BYPASS INLET NODE,COOLSYS1 SUPPLY EQUIP BYPASS OUTLET NODE
   Branch,4,COOLSYS1 SUPPLY OUTLET BRANCH,COOLSYS1,Plant Supply,COOLSYS1 SUPPLY MIXER-COOLSYS1 SUPPLY OUTLET PIPE,COOLSYS1 SUPPLY OUTLET NODE
! ===============================================================
! <#Supply Air Paths>,<Number of Supply Air Paths>
 #Supply Air Paths,8
! <Supply Air Path>,<Supply Air Path Count>,<Supply Air Path Name>,<AirLoopHVAC Name>
! <#Components on Supply Air Path>,<Number of Components>
! <Supply Air Path Component>,<Component Count>,<Component Type>,<Component Name>,<AirLoopHVAC Name>
! <#Outlet Nodes on Supply Air Path Component>,<Number of Nodes>
! <Supply Air Path Component Nodes>,<Node Count>,<Component Type>,<Component Name>,<Inlet Node Name>,<Outlet Node Name>,<AirLoopHVAC Name>
 Supply Air Path,1,AHU-001,AHU-001
   #Components on Supply Air Path,1
   Supply Air Path Component,1,AIRLOOPHVAC:ZONESPLITTER,AHU-001 SUPPLY AIR SPLITTER,AHU-001
     #Outlet Nodes on Supply Air Path Component,17
     Supply Air Path Component Nodes,1,AIRLOOPHVAC:ZONESPLITTER,AHU-001 SUPPLY AIR SPLITTER,AHU-001 ZONE EQUIPMENT INLET NODE,ZONE-VAV-CORRIDOR VAV BOX INLET NODE,AHU-001
     Supply Air Path Component Nodes,2,AIRLOOPHVAC:ZONESPLITTER,AHU-001 SUPPLY AIR SPLITTER,AHU-001 ZONE EQUIPMENT INLET NODE,ZONE-VAV-102 VAV BOX INLET NODE,AHU-001
     Supply Air Path Component Nodes,3,AIRLOOPHVAC:ZONESPLITTER,AHU-001 SUPPLY AIR SPLITTER,AHU-001 ZONE EQUIPMENT INLET NODE,ZONE-VAV-118 VAV BOX INLET NODE,AHU-001
     Supply Air Path Component Nodes,4,AIRLOOPHVAC:ZONESPLITTER,AHU-001 SUPPLY AIR SPLITTER,AHU-001 ZONE EQUIPMENT INLET NODE,ZONE-VAV-119 VAV BOX INLET NODE,AHU-001
     Supply Air Path Component Nodes,5,AIRLOOPHVAC:ZONESPLITTER,AHU-001 SUPPLY AIR SPLITTER,AHU-001 ZONE EQUIPMENT INLET NODE,ZONE-VAV-120 VAV BOX INLET NODE,AHU-001
     Supply Air Path Component Nodes,6,AIRLOOPHVAC:ZONESPLITTER,AHU-001 SUPPLY AIR SPLITTER,AHU-001 ZONE EQUIPMENT INLET NODE,ZONE-VAV-123A VAV BOX INLET NODE,AHU-001
     Supply Air Path Component Nodes,7,AIRLOOPHVAC:ZONESPLITTER,AHU-001 SUPPLY AIR SPLITTER,AHU-001 ZONE EQUIPMENT INLET NODE,ZONE-VAV-123B VAV BOX INLET NODE,AHU-001
     Supply Air Path Component Nodes,8,AIRLOOPHVAC:ZONESPLITTER,AHU-001 SUPPLY AIR SPLITTER,AHU-001 ZONE EQUIPMENT INLET NODE,ZONE-VAV-127A VAV BOX INLET NODE,AHU-001
     Supply Air Path Component Nodes,9,AIRLOOPHVAC:ZONESPLITTER,AHU-001 SUPPLY AIR SPLITTER,AHU-001 ZONE EQUIPMENT INLET NODE,ZONE-VAV-127B VAV BOX INLET NODE,AHU-001
     Supply Air Path Component Nodes,10,AIRLOOPHVAC:ZONESPLITTER,AHU-001 SUPPLY AIR SPLITTER,AHU-001 ZONE EQUIPMENT INLET NODE,ZONE-VAV-129 VAV BOX INLET NODE,AHU-001
     Supply Air Path Component Nodes,11,AIRLOOPHVAC:ZONESPLITTER,AHU-001 SUPPLY AIR SPLITTER,AHU-001 ZONE EQUIPMENT INLET NODE,ZONE-VAV-131 VAV BOX INLET NODE,AHU-001
     Supply Air Path Component Nodes,12,AIRLOOPHVAC:ZONESPLITTER,AHU-001 SUPPLY AIR SPLITTER,AHU-001 ZONE EQUIPMENT INLET NODE,ZONE-VAV-136 VAV BOX INLET NODE,AHU-001
     Supply Air Path Component Nodes,13,AIRLOOPHVAC:ZONESPLITTER,AHU-001 SUPPLY AIR SPLITTER,AHU-001 ZONE EQUIPMENT INLET NODE,ZONE-VAV-133 VAV BOX INLET NODE,AHU-001
     Supply Air Path Component Nodes,14,AIRLOOPHVAC:ZONESPLITTER,AHU-001 SUPPLY AIR SPLITTER,AHU-001 ZONE EQUIPMENT INLET NODE,ZONE-VAV-142 VAV BOX INLET NODE,AHU-001
     Supply Air Path Component Nodes,15,AIRLOOPHVAC:ZONESPLITTER,AHU-001 SUPPLY AIR SPLITTER,AHU-001 ZONE EQUIPMENT INLET NODE,ZONE-VAV-143 VAV BOX INLET NODE,AHU-001
     Supply Air Path Component Nodes,16,AIRLOOPHVAC:ZONESPLITTER,AHU-001 SUPPLY AIR SPLITTER,AHU-001 ZONE EQUIPMENT INLET NODE,ZONE-VAV-150 VAV BOX INLET NODE,AHU-001
     Supply Air Path Component Nodes,17,AIRLOOPHVAC:ZONESPLITTER,AHU-001 SUPPLY AIR SPLITTER,AHU-001 ZONE EQUIPMENT INLET NODE,ZONE-VAV-RESTROOM VAV BOX INLET NODE,AHU-001
! <#Nodes on Supply Air Path>,<Number of Nodes>
! <Supply Air Path Node>,<Node Type>,<Node Count>,<Node Name>,<AirLoopHVAC Name>
#Nodes on Supply Air Path,18
   Supply Air Path Node,Inlet Node,1,AHU-001 ZONE EQUIPMENT INLET NODE,AHU-001
   Supply Air Path Node,Outlet Node,2,ZONE-VAV-CORRIDOR VAV BOX INLET NODE,AHU-001
   Supply Air Path Node,Outlet Node,3,ZONE-VAV-102 VAV BOX INLET NODE,AHU-001
   Supply Air Path Node,Outlet Node,4,ZONE-VAV-118 VAV BOX INLET NODE,AHU-001
   Supply Air Path Node,Outlet Node,5,ZONE-VAV-119 VAV BOX INLET NODE,AHU-001
   Supply Air Path Node,Outlet Node,6,ZONE-VAV-120 VAV BOX INLET NODE,AHU-001
   Supply Air Path Node,Outlet Node,7,ZONE-VAV-123A VAV BOX INLET NODE,AHU-001
   Supply Air Path Node,Outlet Node,8,ZONE-VAV-123B VAV BOX INLET NODE,AHU-001
   Supply Air Path Node,Outlet Node,9,ZONE-VAV-127A VAV BOX INLET NODE,AHU-001
   Supply Air Path Node,Outlet Node,10,ZONE-VAV-127B VAV BOX INLET NODE,AHU-001
   Supply Air Path Node,Outlet Node,11,ZONE-VAV-129 VAV BOX INLET NODE,AHU-001
   Supply Air Path Node,Outlet Node,12,ZONE-VAV-131 VAV BOX INLET NODE,AHU-001
   Supply Air Path Node,Outlet Node,13,ZONE-VAV-136 VAV BOX INLET NODE,AHU-001
   Supply Air Path Node,Outlet Node,14,ZONE-VAV-133 VAV BOX INLET NODE,AHU-001
   Supply Air Path Node,Outlet Node,15,ZONE-VAV-142 VAV BOX INLET NODE,AHU-001
   Supply Air Path Node,Outlet Node,16,ZONE-VAV-143 VAV BOX INLET NODE,AHU-001
   Supply Air Path Node,Outlet Node,17,ZONE-VAV-150 VAV BOX INLET NODE,AHU-001
   Supply Air Path Node,Outlet Node,18,ZONE-VAV-RESTROOM VAV BOX INLET NODE,AHU-001
 Supply Air Path,2,AHU-002,AHU-002
   #Components on Supply Air Path,1
   Supply Air Path Component,1,AIRLOOPHVAC:ZONESPLITTER,AHU-002 SUPPLY AIR SPLITTER,AHU-002
     #Outlet Nodes on Supply Air Path Component,1
     Supply Air Path Component Nodes,1,AIRLOOPHVAC:ZONESPLITTER,AHU-002 SUPPLY AIR SPLITTER,AHU-002 ZONE EQUIPMENT INLET NODE,ZONE-AHU-002 DIRECT AIR INLET NODE NAME,AHU-002
! <#Nodes on Supply Air Path>,<Number of Nodes>
! <Supply Air Path Node>,<Node Type>,<Node Count>,<Node Name>,<AirLoopHVAC Name>
#Nodes on Supply Air Path,2
   Supply Air Path Node,Inlet Node,1,AHU-002 ZONE EQUIPMENT INLET NODE,AHU-002
   Supply Air Path Node,Outlet Node,2,ZONE-AHU-002 DIRECT AIR INLET NODE NAME,AHU-002
 Supply Air Path,3,AHU-003,AHU-003
   #Components on Supply Air Path,1
   Supply Air Path Component,1,AIRLOOPHVAC:ZONESPLITTER,AHU-003 SUPPLY AIR SPLITTER,AHU-003
     #Outlet Nodes on Supply Air Path Component,6
     Supply Air Path Component Nodes,1,AIRLOOPHVAC:ZONESPLITTER,AHU-003 SUPPLY AIR SPLITTER,AHU-003 ZONE EQUIPMENT INLET NODE,ZONE-VAV-104 VAV BOX INLET NODE,AHU-003
     Supply Air Path Component Nodes,2,AIRLOOPHVAC:ZONESPLITTER,AHU-003 SUPPLY AIR SPLITTER,AHU-003 ZONE EQUIPMENT INLET NODE,ZONE-VAV-105 VAV BOX INLET NODE,AHU-003
     Supply Air Path Component Nodes,3,AIRLOOPHVAC:ZONESPLITTER,AHU-003 SUPPLY AIR SPLITTER,AHU-003 ZONE EQUIPMENT INLET NODE,ZONE-VAV-107 VAV BOX INLET NODE,AHU-003
     Supply Air Path Component Nodes,4,AIRLOOPHVAC:ZONESPLITTER,AHU-003 SUPPLY AIR SPLITTER,AHU-003 ZONE EQUIPMENT INLET NODE,ZONE-VAV-108 VAV BOX INLET NODE,AHU-003
     Supply Air Path Component Nodes,5,AIRLOOPHVAC:ZONESPLITTER,AHU-003 SUPPLY AIR SPLITTER,AHU-003 ZONE EQUIPMENT INLET NODE,ZONE-VAV-112 VAV BOX INLET NODE,AHU-003
     Supply Air Path Component Nodes,6,AIRLOOPHVAC:ZONESPLITTER,AHU-003 SUPPLY AIR SPLITTER,AHU-003 ZONE EQUIPMENT INLET NODE,ZONE-VAV-116 VAV BOX INLET NODE,AHU-003
! <#Nodes on Supply Air Path>,<Number of Nodes>
! <Supply Air Path Node>,<Node Type>,<Node Count>,<Node Name>,<AirLoopHVAC Name>
#Nodes on Supply Air Path,7
   Supply Air Path Node,Inlet Node,1,AHU-003 ZONE EQUIPMENT INLET NODE,AHU-003
   Supply Air Path Node,Outlet Node,2,ZONE-VAV-104 VAV BOX INLET NODE,AHU-003
   Supply Air Path Node,Outlet Node,3,ZONE-VAV-105 VAV BOX INLET NODE,AHU-003
   Supply Air Path Node,Outlet Node,4,ZONE-VAV-107 VAV BOX INLET NODE,AHU-003
   Supply Air Path Node,Outlet Node,5,ZONE-VAV-108 VAV BOX INLET NODE,AHU-003
   Supply Air Path Node,Outlet Node,6,ZONE-VAV-112 VAV BOX INLET NODE,AHU-003
   Supply Air Path Node,Outlet Node,7,ZONE-VAV-116 VAV BOX INLET NODE,AHU-003
 Supply Air Path,4,AHU-004,AHU-004
   #Components on Supply Air Path,1
   Supply Air Path Component,1,AIRLOOPHVAC:ZONESPLITTER,AHU-004 SUPPLY AIR SPLITTER,AHU-004
     #Outlet Nodes on Supply Air Path Component,1
     Supply Air Path Component Nodes,1,AIRLOOPHVAC:ZONESPLITTER,AHU-004 SUPPLY AIR SPLITTER,AHU-004 ZONE EQUIPMENT INLET NODE,ZONE-AHU-004 DIRECT AIR INLET NODE NAME,AHU-004
! <#Nodes on Supply Air Path>,<Number of Nodes>
! <Supply Air Path Node>,<Node Type>,<Node Count>,<Node Name>,<AirLoopHVAC Name>
#Nodes on Supply Air Path,2
   Supply Air Path Node,Inlet Node,1,AHU-004 ZONE EQUIPMENT INLET NODE,AHU-004
   Supply Air Path Node,Outlet Node,2,ZONE-AHU-004 DIRECT AIR INLET NODE NAME,AHU-004
 Supply Air Path,5,AHU-005,AHU-005
   #Components on Supply Air Path,1
   Supply Air Path Component,1,AIRLOOPHVAC:ZONESPLITTER,AHU-005 SUPPLY AIR SPLITTER,AHU-005
     #Outlet Nodes on Supply Air Path Component,1
     Supply Air Path Component Nodes,1,AIRLOOPHVAC:ZONESPLITTER,AHU-005 SUPPLY AIR SPLITTER,AHU-005 ZONE EQUIPMENT INLET NODE,ZONE-AHU-005 DIRECT AIR INLET NODE NAME,AHU-005
! <#Nodes on Supply Air Path>,<Number of Nodes>
! <Supply Air Path Node>,<Node Type>,<Node Count>,<Node Name>,<AirLoopHVAC Name>
#Nodes on Supply Air Path,2
   Supply Air Path Node,Inlet Node,1,AHU-005 ZONE EQUIPMENT INLET NODE,AHU-005
   Supply Air Path Node,Outlet Node,2,ZONE-AHU-005 DIRECT AIR INLET NODE NAME,AHU-005
 Supply Air Path,6,FCU-001,FCU-001
   #Components on Supply Air Path,1
   Supply Air Path Component,1,AIRLOOPHVAC:ZONESPLITTER,FCU-001 SUPPLY AIR SPLITTER,FCU-001
     #Outlet Nodes on Supply Air Path Component,1
     Supply Air Path Component Nodes,1,AIRLOOPHVAC:ZONESPLITTER,FCU-001 SUPPLY AIR SPLITTER,FCU-001 ZONE EQUIPMENT INLET NODE,ZONE-FCU-001 DIRECT AIR INLET NODE NAME,FCU-001
! <#Nodes on Supply Air Path>,<Number of Nodes>
! <Supply Air Path Node>,<Node Type>,<Node Count>,<Node Name>,<AirLoopHVAC Name>
#Nodes on Supply Air Path,2
   Supply Air Path Node,Inlet Node,1,FCU-001 ZONE EQUIPMENT INLET NODE,FCU-001
   Supply Air Path Node,Outlet Node,2,ZONE-FCU-001 DIRECT AIR INLET NODE NAME,FCU-001
 Supply Air Path,7,FCU-002,FCU-002
   #Components on Supply Air Path,1
   Supply Air Path Component,1,AIRLOOPHVAC:ZONESPLITTER,FCU-002 SUPPLY AIR SPLITTER,FCU-002
     #Outlet Nodes on Supply Air Path Component,1
     Supply Air Path Component Nodes,1,AIRLOOPHVAC:ZONESPLITTER,FCU-002 SUPPLY AIR SPLITTER,FCU-002 ZONE EQUIPMENT INLET NODE,ZONE-FCU-002 DIRECT AIR INLET NODE NAME,FCU-002
! <#Nodes on Supply Air Path>,<Number of Nodes>
! <Supply Air Path Node>,<Node Type>,<Node Count>,<Node Name>,<AirLoopHVAC Name>
#Nodes on Supply Air Path,2
   Supply Air Path Node,Inlet Node,1,FCU-002 ZONE EQUIPMENT INLET NODE,FCU-002
   Supply Air Path Node,Outlet Node,2,ZONE-FCU-002 DIRECT AIR INLET NODE NAME,FCU-002
 Supply Air Path,8,FCU-003,FCU-003
   #Components on Supply Air Path,1
   Supply Air Path Component,1,AIRLOOPHVAC:ZONESPLITTER,FCU-003 SUPPLY AIR SPLITTER,FCU-003
     #Outlet Nodes on Supply Air Path Component,1
     Supply Air Path Component Nodes,1,AIRLOOPHVAC:ZONESPLITTER,FCU-003 SUPPLY AIR SPLITTER,FCU-003 ZONE EQUIPMENT INLET NODE,ZONE-FCU-003 DIRECT AIR INLET NODE NAME,FCU-003
! <#Nodes on Supply Air Path>,<Number of Nodes>
! <Supply Air Path Node>,<Node Type>,<Node Count>,<Node Name>,<AirLoopHVAC Name>
#Nodes on Supply Air Path,2
   Supply Air Path Node,Inlet Node,1,FCU-003 ZONE EQUIPMENT INLET NODE,FCU-003
   Supply Air Path Node,Outlet Node,2,ZONE-FCU-003 DIRECT AIR INLET NODE NAME,FCU-003
! ===============================================================
! <#Return Air Paths>,<Number of Return Air Paths>
 #Return Air Paths,8
! <Return Air Path>,<Return Air Path Count>,<Return Air Path Name>,<AirLoopHVAC Name>
! <#Components on Return Air Path>,<Number of Components>
! <Return Air Path Component>,<Component Count>,<Component Type>,<Component Name>,<AirLoopHVAC Name>
! <#Inlet Nodes on Return Air Path Component>,<Number of Nodes>
! <Return Air Path Component Nodes>,<Node Count>,<Component Type>,<Component Name>,<Inlet Node Name>,<Outlet Node Name>,<AirLoopHVAC Name>
 Return Air Path,1,AHU-001 RETURN AIR PATH,AHU-001
   #Components on Return Air Path,1
   Return Air Path Component,1,AIRLOOPHVAC:ZONEMIXER,AHU-001 RETURN AIR MIXER,AHU-001
     #Inlet Nodes on Return Air Path Component,17
     Return Air Path Component Nodes,1,AIRLOOPHVAC:ZONEMIXER,AHU-001 RETURN AIR MIXER,ZONE-VAV-CORRIDOR RETURN AIR NODE,AHU-001 ZONE EQUIPMENT OUTLET NODE,AHU-001
     Return Air Path Component Nodes,2,AIRLOOPHVAC:ZONEMIXER,AHU-001 RETURN AIR MIXER,ZONE-VAV-102 RETURN AIR NODE,AHU-001 ZONE EQUIPMENT OUTLET NODE,AHU-001
     Return Air Path Component Nodes,3,AIRLOOPHVAC:ZONEMIXER,AHU-001 RETURN AIR MIXER,ZONE-VAV-118 RETURN AIR NODE,AHU-001 ZONE EQUIPMENT OUTLET NODE,AHU-001
     Return Air Path Component Nodes,4,AIRLOOPHVAC:ZONEMIXER,AHU-001 RETURN AIR MIXER,ZONE-VAV-119 RETURN AIR NODE,AHU-001 ZONE EQUIPMENT OUTLET NODE,AHU-001
     Return Air Path Component Nodes,5,AIRLOOPHVAC:ZONEMIXER,AHU-001 RETURN AIR MIXER,ZONE-VAV-120 RETURN AIR NODE,AHU-001 ZONE EQUIPMENT OUTLET NODE,AHU-001
     Return Air Path Component Nodes,6,AIRLOOPHVAC:ZONEMIXER,AHU-001 RETURN AIR MIXER,ZONE-VAV-123A RETURN AIR NODE,AHU-001 ZONE EQUIPMENT OUTLET NODE,AHU-001
     Return Air Path Component Nodes,7,AIRLOOPHVAC:ZONEMIXER,AHU-001 RETURN AIR MIXER,ZONE-VAV-123B RETURN AIR NODE,AHU-001 ZONE EQUIPMENT OUTLET NODE,AHU-001
     Return Air Path Component Nodes,8,AIRLOOPHVAC:ZONEMIXER,AHU-001 RETURN AIR MIXER,ZONE-VAV-127A RETURN AIR NODE,AHU-001 ZONE EQUIPMENT OUTLET NODE,AHU-001
     Return Air Path Component Nodes,9,AIRLOOPHVAC:ZONEMIXER,AHU-001 RETURN AIR MIXER,ZONE-VAV-127B RETURN AIR NODE,AHU-001 ZONE EQUIPMENT OUTLET NODE,AHU-001
     Return Air Path Component Nodes,10,AIRLOOPHVAC:ZONEMIXER,AHU-001 RETURN AIR MIXER,ZONE-VAV-129 RETURN AIR NODE,AHU-001 ZONE EQUIPMENT OUTLET NODE,AHU-001
     Return Air Path Component Nodes,11,AIRLOOPHVAC:ZONEMIXER,AHU-001 RETURN AIR MIXER,ZONE-VAV-131 RETURN AIR NODE,AHU-001 ZONE EQUIPMENT OUTLET NODE,AHU-001
     Return Air Path Component Nodes,12,AIRLOOPHVAC:ZONEMIXER,AHU-001 RETURN AIR MIXER,ZONE-VAV-136 RETURN AIR NODE,AHU-001 ZONE EQUIPMENT OUTLET NODE,AHU-001
     Return Air Path Component Nodes,13,AIRLOOPHVAC:ZONEMIXER,AHU-001 RETURN AIR MIXER,ZONE-VAV-133 RETURN AIR NODE,AHU-001 ZONE EQUIPMENT OUTLET NODE,AHU-001
     Return Air Path Component Nodes,14,AIRLOOPHVAC:ZONEMIXER,AHU-001 RETURN AIR MIXER,ZONE-VAV-142 RETURN AIR NODE,AHU-001 ZONE EQUIPMENT OUTLET NODE,AHU-001
     Return Air Path Component Nodes,15,AIRLOOPHVAC:ZONEMIXER,AHU-001 RETURN AIR MIXER,ZONE-VAV-143 RETURN AIR NODE,AHU-001 ZONE EQUIPMENT OUTLET NODE,AHU-001
     Return Air Path Component Nodes,16,AIRLOOPHVAC:ZONEMIXER,AHU-001 RETURN AIR MIXER,ZONE-VAV-150 RETURN AIR NODE,AHU-001 ZONE EQUIPMENT OUTLET NODE,AHU-001
     Return Air Path Component Nodes,17,AIRLOOPHVAC:ZONEMIXER,AHU-001 RETURN AIR MIXER,ZONE-VAV-RESTROOM RETURN AIR NODE,AHU-001 ZONE EQUIPMENT OUTLET NODE,AHU-001
! <#Nodes on Return Air Path>,<Number of Nodes>
! <Return Air Path Node>,<Node Type>,<Node Count>,<Node Name>,<AirLoopHVAC Name>
   #Nodes on Return Air Path,18
   Return Air Path Node,Outlet Node,1,AHU-001 ZONE EQUIPMENT OUTLET NODE,AHU-001
   Return Air Path Node,Inlet Node,2,ZONE-VAV-CORRIDOR RETURN AIR NODE,AHU-001
   Return Air Path Node,Inlet Node,3,ZONE-VAV-102 RETURN AIR NODE,AHU-001
   Return Air Path Node,Inlet Node,4,ZONE-VAV-118 RETURN AIR NODE,AHU-001
   Return Air Path Node,Inlet Node,5,ZONE-VAV-119 RETURN AIR NODE,AHU-001
   Return Air Path Node,Inlet Node,6,ZONE-VAV-120 RETURN AIR NODE,AHU-001
   Return Air Path Node,Inlet Node,7,ZONE-VAV-123A RETURN AIR NODE,AHU-001
   Return Air Path Node,Inlet Node,8,ZONE-VAV-123B RETURN AIR NODE,AHU-001
   Return Air Path Node,Inlet Node,9,ZONE-VAV-127A RETURN AIR NODE,AHU-001
   Return Air Path Node,Inlet Node,10,ZONE-VAV-127B RETURN AIR NODE,AHU-001
   Return Air Path Node,Inlet Node,11,ZONE-VAV-129 RETURN AIR NODE,AHU-001
   Return Air Path Node,Inlet Node,12,ZONE-VAV-131 RETURN AIR NODE,AHU-001
   Return Air Path Node,Inlet Node,13,ZONE-VAV-136 RETURN AIR NODE,AHU-001
   Return Air Path Node,Inlet Node,14,ZONE-VAV-133 RETURN AIR NODE,AHU-001
   Return Air Path Node,Inlet Node,15,ZONE-VAV-142 RETURN AIR NODE,AHU-001
   Return Air Path Node,Inlet Node,16,ZONE-VAV-143 RETURN AIR NODE,AHU-001
   Return Air Path Node,Inlet Node,17,ZONE-VAV-150 RETURN AIR NODE,AHU-001
   Return Air Path Node,Inlet Node,18,ZONE-VAV-RESTROOM RETURN AIR NODE,AHU-001
 Return Air Path,2,AHU-002 RETURN AIR PATH,AHU-002
   #Components on Return Air Path,1
   Return Air Path Component,1,AIRLOOPHVAC:ZONEMIXER,AHU-002 RETURN AIR MIXER,AHU-002
     #Inlet Nodes on Return Air Path Component,1
     Return Air Path Component Nodes,1,AIRLOOPHVAC:ZONEMIXER,AHU-002 RETURN AIR MIXER,ZONE-AHU-002 RETURN AIR NODE,AHU-002 ZONE EQUIPMENT OUTLET NODE,AHU-002
! <#Nodes on Return Air Path>,<Number of Nodes>
! <Return Air Path Node>,<Node Type>,<Node Count>,<Node Name>,<AirLoopHVAC Name>
   #Nodes on Return Air Path,2
   Return Air Path Node,Outlet Node,1,AHU-002 ZONE EQUIPMENT OUTLET NODE,AHU-002
   Return Air Path Node,Inlet Node,2,ZONE-AHU-002 RETURN AIR NODE,AHU-002
 Return Air Path,3,AHU-003 RETURN AIR PATH,AHU-003
   #Components on Return Air Path,1
   Return Air Path Component,1,AIRLOOPHVAC:ZONEMIXER,AHU-003 RETURN AIR MIXER,AHU-003
     #Inlet Nodes on Return Air Path Component,6
     Return Air Path Component Nodes,1,AIRLOOPHVAC:ZONEMIXER,AHU-003 RETURN AIR MIXER,ZONE-VAV-104 RETURN AIR NODE,AHU-003 ZONE EQUIPMENT OUTLET NODE,AHU-003
     Return Air Path Component Nodes,2,AIRLOOPHVAC:ZONEMIXER,AHU-003 RETURN AIR MIXER,ZONE-VAV-105 RETURN AIR NODE,AHU-003 ZONE EQUIPMENT OUTLET NODE,AHU-003
     Return Air Path Component Nodes,3,AIRLOOPHVAC:ZONEMIXER,AHU-003 RETURN AIR MIXER,ZONE-VAV-107 RETURN AIR NODE,AHU-003 ZONE EQUIPMENT OUTLET NODE,AHU-003
     Return Air Path Component Nodes,4,AIRLOOPHVAC:ZONEMIXER,AHU-003 RETURN AIR MIXER,ZONE-VAV-108 RETURN AIR NODE,AHU-003 ZONE EQUIPMENT OUTLET NODE,AHU-003
     Return Air Path Component Nodes,5,AIRLOOPHVAC:ZONEMIXER,AHU-003 RETURN AIR MIXER,ZONE-VAV-112 RETURN AIR NODE,AHU-003 ZONE EQUIPMENT OUTLET NODE,AHU-003
     Return Air Path Component Nodes,6,AIRLOOPHVAC:ZONEMIXER,AHU-003 RETURN AIR MIXER,ZONE-VAV-116 RETURN AIR NODE,AHU-003 ZONE EQUIPMENT OUTLET NODE,AHU-003
! <#Nodes on Return Air Path>,<Number of Nodes>
! <Return Air Path Node>,<Node Type>,<Node Count>,<Node Name>,<AirLoopHVAC Name>
   #Nodes on Return Air Path,7
   Return Air Path Node,Outlet Node,1,AHU-003 ZONE EQUIPMENT OUTLET NODE,AHU-003
   Return Air Path Node,Inlet Node,2,ZONE-VAV-104 RETURN AIR NODE,AHU-003
   Return Air Path Node,Inlet Node,3,ZONE-VAV-105 RETURN AIR NODE,AHU-003
   Return Air Path Node,Inlet Node,4,ZONE-VAV-107 RETURN AIR NODE,AHU-003
   Return Air Path Node,Inlet Node,5,ZONE-VAV-108 RETURN AIR NODE,AHU-003
   Return Air Path Node,Inlet Node,6,ZONE-VAV-112 RETURN AIR NODE,AHU-003
   Return Air Path Node,Inlet Node,7,ZONE-VAV-116 RETURN AIR NODE,AHU-003
 Return Air Path,4,AHU-004 RETURN AIR PATH,AHU-004
   #Components on Return Air Path,1
   Return Air Path Component,1,AIRLOOPHVAC:ZONEMIXER,AHU-004 RETURN AIR MIXER,AHU-004
     #Inlet Nodes on Return Air Path Component,1
     Return Air Path Component Nodes,1,AIRLOOPHVAC:ZONEMIXER,AHU-004 RETURN AIR MIXER,ZONE-AHU-004 RETURN AIR NODE,AHU-004 ZONE EQUIPMENT OUTLET NODE,AHU-004
! <#Nodes on Return Air Path>,<Number of Nodes>
! <Return Air Path Node>,<Node Type>,<Node Count>,<Node Name>,<AirLoopHVAC Name>
   #Nodes on Return Air Path,2
   Return Air Path Node,Outlet Node,1,AHU-004 ZONE EQUIPMENT OUTLET NODE,AHU-004
   Return Air Path Node,Inlet Node,2,ZONE-AHU-004 RETURN AIR NODE,AHU-004
 Return Air Path,5,AHU-005 RETURN AIR PATH,AHU-005
   #Components on Return Air Path,1
   Return Air Path Component,1,AIRLOOPHVAC:ZONEMIXER,AHU-005 RETURN AIR MIXER,AHU-005
     #Inlet Nodes on Return Air Path Component,1
     Return Air Path Component Nodes,1,AIRLOOPHVAC:ZONEMIXER,AHU-005 RETURN AIR MIXER,ZONE-AHU-005 RETURN AIR NODE,AHU-005 ZONE EQUIPMENT OUTLET NODE,AHU-005
! <#Nodes on Return Air Path>,<Number of Nodes>
! <Return Air Path Node>,<Node Type>,<Node Count>,<Node Name>,<AirLoopHVAC Name>
   #Nodes on Return Air Path,2
   Return Air Path Node,Outlet Node,1,AHU-005 ZONE EQUIPMENT OUTLET NODE,AHU-005
   Return Air Path Node,Inlet Node,2,ZONE-AHU-005 RETURN AIR NODE,AHU-005
 Return Air Path,6,FCU-001 RETURN AIR PATH,FCU-001
   #Components on Return Air Path,1
   Return Air Path Component,1,AIRLOOPHVAC:ZONEMIXER,FCU-001 RETURN AIR MIXER,FCU-001
     #Inlet Nodes on Return Air Path Component,1
     Return Air Path Component Nodes,1,AIRLOOPHVAC:ZONEMIXER,FCU-001 RETURN AIR MIXER,ZONE-FCU-001 RETURN AIR NODE,FCU-001 ZONE EQUIPMENT OUTLET NODE,FCU-001
! <#Nodes on Return Air Path>,<Number of Nodes>
! <Return Air Path Node>,<Node Type>,<Node Count>,<Node Name>,<AirLoopHVAC Name>
   #Nodes on Return Air Path,2
   Return Air Path Node,Outlet Node,1,FCU-001 ZONE EQUIPMENT OUTLET NODE,FCU-001
   Return Air Path Node,Inlet Node,2,ZONE-FCU-001 RETURN AIR NODE,FCU-001
 Return Air Path,7,FCU-002 RETURN AIR PATH,FCU-002
   #Components on Return Air Path,1
   Return Air Path Component,1,AIRLOOPHVAC:ZONEMIXER,FCU-002 RETURN AIR MIXER,FCU-002
     #Inlet Nodes on Return Air Path Component,1
     Return Air Path Component Nodes,1,AIRLOOPHVAC:ZONEMIXER,FCU-002 RETURN AIR MIXER,ZONE-FCU-002 RETURN AIR NODE,FCU-002 ZONE EQUIPMENT OUTLET NODE,FCU-002
! <#Nodes on Return Air Path>,<Number of Nodes>
! <Return Air Path Node>,<Node Type>,<Node Count>,<Node Name>,<AirLoopHVAC Name>
   #Nodes on Return Air Path,2
   Return Air Path Node,Outlet Node,1,FCU-002 ZONE EQUIPMENT OUTLET NODE,FCU-002
   Return Air Path Node,Inlet Node,2,ZONE-FCU-002 RETURN AIR NODE,FCU-002
 Return Air Path,8,FCU-003 RETURN AIR PATH,FCU-003
   #Components on Return Air Path,1
   Return Air Path Component,1,AIRLOOPHVAC:ZONEMIXER,FCU-003 RETURN AIR MIXER,FCU-003
     #Inlet Nodes on Return Air Path Component,1
     Return Air Path Component Nodes,1,AIRLOOPHVAC:ZONEMIXER,FCU-003 RETURN AIR MIXER,ZONE-FCU-003 RETURN AIR NODE,FCU-003 ZONE EQUIPMENT OUTLET NODE,FCU-003
! <#Nodes on Return Air Path>,<Number of Nodes>
! <Return Air Path Node>,<Node Type>,<Node Count>,<Node Name>,<AirLoopHVAC Name>
   #Nodes on Return Air Path,2
   Return Air Path Node,Outlet Node,1,FCU-003 ZONE EQUIPMENT OUTLET NODE,FCU-003
   Return Air Path Node,Inlet Node,2,ZONE-FCU-003 RETURN AIR NODE,FCU-003
! ===============================================================
! #Outdoor Air Nodes,<Number of Outdoor Air Nodes>
 #Outdoor Air Nodes,8
! <Outdoor Air Node>,<NodeNumber>,<Node Name>
 Outdoor Air Node,9,AHU-001 OAINLET NODE
 Outdoor Air Node,10,AHU-002 OAINLET NODE
 Outdoor Air Node,11,AHU-003 OAINLET NODE
 Outdoor Air Node,12,AHU-004 OAINLET NODE
 Outdoor Air Node,165,FCU-001 OAINLET NODE
 Outdoor Air Node,166,FCU-002 OAINLET NODE
 Outdoor Air Node,167,FCU-003 OAINLET NODE
 Outdoor Air Node,168,AHU-005 OAINLET NODE
! ===============================================================
! <#Component Sets>,<Number of Component Sets>
 #Component Sets,148
! <Component Set>,<Component Set Count>,<Parent Object Type>,<Parent Object Name>,<Component Type>,<Component Name>,<Inlet Node ID>,<Outlet Node ID>,<Description>
 Component Set,1,BRANCH,AHU-005 AIR LOOP MAIN BRANCH,AIRLOOPHVAC:OUTDOORAIRSYSTEM,AHU-005 OA,AHU-005 SUPPLY EQUIPMENT INLET NODE,AHU-005 OA FANNODE,Air Nodes
 Component Set,2,BRANCH,AHU-005 AIR LOOP MAIN BRANCH,FAN:VARIABLEVOLUME,AHU-005 FAN,AHU-005 OA FANNODE,AHU-005 FAN COOLC NODE,Air Nodes
 Component Set,3,BRANCH,AHU-005 AIR LOOP MAIN BRANCH,COILSYSTEM:COOLING:DX,AHU-005 COOLC,AHU-005 FAN COOLC NODE,AHU-005 SUPPLY EQUIPMENT OUTLET NODE,Air Nodes
 Component Set,4,BRANCH,HEATSYS1 DEMAND LOAD BRANCH 19,COIL:HEATING:WATER,ZONE-VAV-136 VAV BOX REHEAT COIL,ZONE-VAV-136 VAV BOX REHEAT COILDEMAND INLET NODE,ZONE-VAV-136 VAV BOX REHEAT COILDEMAND OUTLET NODE,Water Nodes
 Component Set,5,BRANCH,AHU-001 AIR LOOP MAIN BRANCH,AIRLOOPHVAC:OUTDOORAIRSYSTEM,AHU-001 OA,AHU-001 SUPPLY EQUIPMENT INLET NODE,AHU-001 OA COOLCNODE,Air Nodes
 Component Set,6,BRANCH,AHU-001 AIR LOOP MAIN BRANCH,COIL:COOLING:WATER,AHU-001 COOLC,AHU-001 OA COOLCNODE,AHU-001 COOLC HEATCNODE,Air Nodes
 Component Set,7,BRANCH,AHU-001 AIR LOOP MAIN BRANCH,COIL:HEATING:WATER,AHU-001 HEATC,AHU-001 COOLC HEATCNODE,AHU-001 HEATC FANNODE,Air Nodes
 Component Set,8,BRANCH,AHU-001 AIR LOOP MAIN BRANCH,FAN:VARIABLEVOLUME,AHU-001 FAN,AHU-001 HEATC FANNODE,AHU-001 SUPPLY EQUIPMENT OUTLET NODE,Air Nodes
 Component Set,9,BRANCH,AHU-002 AIR LOOP MAIN BRANCH,AIRLOOPHVAC:OUTDOORAIRSYSTEM,AHU-002 OA,AHU-002 SUPPLY EQUIPMENT INLET NODE,AHU-002 OA COOLCNODE,Air Nodes
 Component Set,10,BRANCH,AHU-002 AIR LOOP MAIN BRANCH,COIL:COOLING:WATER,AHU-002 COOLC,AHU-002 OA COOLCNODE,AHU-002 COOLC HEATCNODE,Air Nodes
 Component Set,11,BRANCH,AHU-002 AIR LOOP MAIN BRANCH,COIL:HEATING:WATER,AHU-002 HEATC,AHU-002 COOLC HEATCNODE,AHU-002 HEATC FANNODE,Air Nodes
 Component Set,12,BRANCH,AHU-002 AIR LOOP MAIN BRANCH,FAN:VARIABLEVOLUME,AHU-002 FAN,AHU-002 HEATC FANNODE,AHU-002 SUPPLY EQUIPMENT OUTLET NODE,Air Nodes
 Component Set,13,BRANCH,AHU-003 AIR LOOP MAIN BRANCH,AIRLOOPHVAC:OUTDOORAIRSYSTEM,AHU-003 OA,AHU-003 SUPPLY EQUIPMENT INLET NODE,AHU-003 OA COOLCNODE,Air Nodes
 Component Set,14,BRANCH,AHU-003 AIR LOOP MAIN BRANCH,COIL:COOLING:WATER,AHU-003 COOLC,AHU-003 OA COOLCNODE,AHU-003 COOLC HEATCNODE,Air Nodes
 Component Set,15,BRANCH,AHU-003 AIR LOOP MAIN BRANCH,COIL:HEATING:WATER,AHU-003 HEATC,AHU-003 COOLC HEATCNODE,AHU-003 HEATC FANNODE,Air Nodes
 Component Set,16,BRANCH,AHU-003 AIR LOOP MAIN BRANCH,FAN:VARIABLEVOLUME,AHU-003 FAN,AHU-003 HEATC FANNODE,AHU-003 SUPPLY EQUIPMENT OUTLET NODE,Air Nodes
 Component Set,17,BRANCH,AHU-004 AIR LOOP MAIN BRANCH,AIRLOOPHVAC:OUTDOORAIRSYSTEM,AHU-004 OA,AHU-004 SUPPLY EQUIPMENT INLET NODE,AHU-004 OA COOLCNODE,Air Nodes
 Component Set,18,BRANCH,AHU-004 AIR LOOP MAIN BRANCH,COIL:COOLING:WATER,AHU-004 COOLC,AHU-004 OA COOLCNODE,AHU-004 COOLC HEATCNODE,Air Nodes
 Component Set,19,BRANCH,AHU-004 AIR LOOP MAIN BRANCH,COIL:HEATING:WATER,AHU-004 HEATC,AHU-004 COOLC HEATCNODE,AHU-004 HEATC FANNODE,Air Nodes
 Component Set,20,BRANCH,AHU-004 AIR LOOP MAIN BRANCH,FAN:VARIABLEVOLUME,AHU-004 FAN,AHU-004 HEATC FANNODE,AHU-004 SUPPLY EQUIPMENT OUTLET NODE,Air Nodes
 Component Set,21,BRANCH,HEATSYS1 DEMAND LOAD BRANCH 1,COIL:HEATING:WATER,ZONE-VAV-CORRIDOR VAV BOX REHEAT COIL,ZONE-VAV-CORRIDOR VAV BOX REHEAT COILDEMAND INLET NODE,ZONE-VAV-CORRIDOR VAV BOX REHEAT COILDEMAND OUTLET NODE,Water Nodes
 Component Set,22,BRANCH,HEATSYS1 DEMAND LOAD BRANCH 2,COIL:HEATING:WATER,ZONE-VAV-102 VAV BOX REHEAT COIL,ZONE-VAV-102 VAV BOX REHEAT COILDEMAND INLET NODE,ZONE-VAV-102 VAV BOX REHEAT COILDEMAND OUTLET NODE,Water Nodes
 Component Set,23,BRANCH,HEATSYS1 DEMAND LOAD BRANCH 3,COIL:HEATING:WATER,ZONE-VAV-104 VAV BOX REHEAT COIL,ZONE-VAV-104 VAV BOX REHEAT COILDEMAND INLET NODE,ZONE-VAV-104 VAV BOX REHEAT COILDEMAND OUTLET NODE,Water Nodes
 Component Set,24,BRANCH,HEATSYS1 DEMAND LOAD BRANCH 4,COIL:HEATING:WATER,ZONE-VAV-105 VAV BOX REHEAT COIL,ZONE-VAV-105 VAV BOX REHEAT COILDEMAND INLET NODE,ZONE-VAV-105 VAV BOX REHEAT COILDEMAND OUTLET NODE,Water Nodes
 Component Set,25,BRANCH,HEATSYS1 DEMAND LOAD BRANCH 5,COIL:HEATING:WATER,ZONE-VAV-107 VAV BOX REHEAT COIL,ZONE-VAV-107 VAV BOX REHEAT COILDEMAND INLET NODE,ZONE-VAV-107 VAV BOX REHEAT COILDEMAND OUTLET NODE,Water Nodes
 Component Set,26,BRANCH,HEATSYS1 DEMAND LOAD BRANCH 6,COIL:HEATING:WATER,ZONE-VAV-108 VAV BOX REHEAT COIL,ZONE-VAV-108 VAV BOX REHEAT COILDEMAND INLET NODE,ZONE-VAV-108 VAV BOX REHEAT COILDEMAND OUTLET NODE,Water Nodes
 Component Set,27,BRANCH,HEATSYS1 DEMAND LOAD BRANCH 7,COIL:HEATING:WATER,ZONE-VAV-112 VAV BOX REHEAT COIL,ZONE-VAV-112 VAV BOX REHEAT COILDEMAND INLET NODE,ZONE-VAV-112 VAV BOX REHEAT COILDEMAND OUTLET NODE,Water Nodes
 Component Set,28,BRANCH,HEATSYS1 DEMAND LOAD BRANCH 8,COIL:HEATING:WATER,ZONE-VAV-116 VAV BOX REHEAT COIL,ZONE-VAV-116 VAV BOX REHEAT COILDEMAND INLET NODE,ZONE-VAV-116 VAV BOX REHEAT COILDEMAND OUTLET NODE,Water Nodes
 Component Set,29,BRANCH,HEATSYS1 DEMAND LOAD BRANCH 9,COIL:HEATING:WATER,ZONE-VAV-118 VAV BOX REHEAT COIL,ZONE-VAV-118 VAV BOX REHEAT COILDEMAND INLET NODE,ZONE-VAV-118 VAV BOX REHEAT COILDEMAND OUTLET NODE,Water Nodes
 Component Set,30,BRANCH,HEATSYS1 DEMAND LOAD BRANCH 10,COIL:HEATING:WATER,ZONE-VAV-119 VAV BOX REHEAT COIL,ZONE-VAV-119 VAV BOX REHEAT COILDEMAND INLET NODE,ZONE-VAV-119 VAV BOX REHEAT COILDEMAND OUTLET NODE,Water Nodes
 Component Set,31,BRANCH,HEATSYS1 DEMAND LOAD BRANCH 11,COIL:HEATING:WATER,ZONE-VAV-120 VAV BOX REHEAT COIL,ZONE-VAV-120 VAV BOX REHEAT COILDEMAND INLET NODE,ZONE-VAV-120 VAV BOX REHEAT COILDEMAND OUTLET NODE,Water Nodes
 Component Set,32,BRANCH,HEATSYS1 DEMAND LOAD BRANCH 13,COIL:HEATING:WATER,ZONE-VAV-123A VAV BOX REHEAT COIL,ZONE-VAV-123A VAV BOX REHEAT COILDEMAND INLET NODE,ZONE-VAV-123A VAV BOX REHEAT COILDEMAND OUTLET NODE,Water Nodes
 Component Set,33,BRANCH,HEATSYS1 DEMAND LOAD BRANCH 14,COIL:HEATING:WATER,ZONE-VAV-123B VAV BOX REHEAT COIL,ZONE-VAV-123B VAV BOX REHEAT COILDEMAND INLET NODE,ZONE-VAV-123B VAV BOX REHEAT COILDEMAND OUTLET NODE,Water Nodes
 Component Set,34,BRANCH,HEATSYS1 DEMAND LOAD BRANCH 15,COIL:HEATING:WATER,ZONE-VAV-127A VAV BOX REHEAT COIL,ZONE-VAV-127A VAV BOX REHEAT COILDEMAND INLET NODE,ZONE-VAV-127A VAV BOX REHEAT COILDEMAND OUTLET NODE,Water Nodes
 Component Set,35,BRANCH,HEATSYS1 DEMAND LOAD BRANCH 16,COIL:HEATING:WATER,ZONE-VAV-127B VAV BOX REHEAT COIL,ZONE-VAV-127B VAV BOX REHEAT COILDEMAND INLET NODE,ZONE-VAV-127B VAV BOX REHEAT COILDEMAND OUTLET NODE,Water Nodes
 Component Set,36,BRANCH,HEATSYS1 DEMAND LOAD BRANCH 17,COIL:HEATING:WATER,ZONE-VAV-129 VAV BOX REHEAT COIL,ZONE-VAV-129 VAV BOX REHEAT COILDEMAND INLET NODE,ZONE-VAV-129 VAV BOX REHEAT COILDEMAND OUTLET NODE,Water Nodes
 Component Set,37,BRANCH,HEATSYS1 DEMAND LOAD BRANCH 18,COIL:HEATING:WATER,ZONE-VAV-131 VAV BOX REHEAT COIL,ZONE-VAV-131 VAV BOX REHEAT COILDEMAND INLET NODE,ZONE-VAV-131 VAV BOX REHEAT COILDEMAND OUTLET NODE,Water Nodes
 Component Set,38,BRANCH,HEATSYS1 DEMAND LOAD BRANCH 20,COIL:HEATING:WATER,ZONE-VAV-133 VAV BOX REHEAT COIL,ZONE-VAV-133 VAV BOX REHEAT COILDEMAND INLET NODE,ZONE-VAV-133 VAV BOX REHEAT COILDEMAND OUTLET NODE,Water Nodes
 Component Set,39,BRANCH,HEATSYS1 DEMAND LOAD BRANCH 21,COIL:HEATING:WATER,ZONE-VAV-142 VAV BOX REHEAT COIL,ZONE-VAV-142 VAV BOX REHEAT COILDEMAND INLET NODE,ZONE-VAV-142 VAV BOX REHEAT COILDEMAND OUTLET NODE,Water Nodes
 Component Set,40,BRANCH,HEATSYS1 DEMAND LOAD BRANCH 22,COIL:HEATING:WATER,ZONE-VAV-143 VAV BOX REHEAT COIL,ZONE-VAV-143 VAV BOX REHEAT COILDEMAND INLET NODE,ZONE-VAV-143 VAV BOX REHEAT COILDEMAND OUTLET NODE,Water Nodes
 Component Set,41,BRANCH,HEATSYS1 DEMAND LOAD BRANCH 23,COIL:HEATING:WATER,ZONE-VAV-150 VAV BOX REHEAT COIL,ZONE-VAV-150 VAV BOX REHEAT COILDEMAND INLET NODE,ZONE-VAV-150 VAV BOX REHEAT COILDEMAND OUTLET NODE,Water Nodes
 Component Set,42,BRANCH,HEATSYS1 DEMAND LOAD BRANCH 27,COIL:HEATING:WATER,AHU-001 HEATC,AHU-001 HEATCDEMAND INLET NODE,AHU-001 HEATCDEMAND OUTLET NODE,Water Nodes
 Component Set,43,BRANCH,HEATSYS1 DEMAND LOAD BRANCH 28,COIL:HEATING:WATER,AHU-002 HEATC,AHU-002 HEATCDEMAND INLET NODE,AHU-002 HEATCDEMAND OUTLET NODE,Water Nodes
 Component Set,44,BRANCH,HEATSYS1 DEMAND LOAD BRANCH 29,COIL:HEATING:WATER,AHU-003 HEATC,AHU-003 HEATCDEMAND INLET NODE,AHU-003 HEATCDEMAND OUTLET NODE,Water Nodes
 Component Set,45,BRANCH,HEATSYS1 DEMAND LOAD BRANCH 30,COIL:HEATING:WATER,AHU-004 HEATC,AHU-004 HEATCDEMAND INLET NODE,AHU-004 HEATCDEMAND OUTLET NODE,Water Nodes
 Component Set,46,BRANCH,HEATSYS1 DEMAND LOAD BRANCH 32,COIL:HEATING:WATER,ZONE-VAV-RESTROOM VAV BOX REHEAT COIL,ZONE-VAV-RESTROOM VAV BOX REHEAT COILDEMAND INLET NODE,ZONE-VAV-RESTROOM VAV BOX REHEAT COILDEMAND OUTLET NODE,Water Nodes
 Component Set,47,BRANCH,HEATSYS1 DEMAND INLET BRANCH,PIPE:ADIABATIC,HEATSYS1 DEMAND INLET PIPE,HEATSYS1 DEMAND INLET NODE,HEATSYS1 DEMAND INLET PIPE-HEATSYS1 DEMAND MIXER,Pipe Nodes
 Component Set,48,BRANCH,HEATSYS1 DEMAND BYPASS BRANCH,PIPE:ADIABATIC,HEATSYS1 DEMAND BYPASS PIPE,HEATSYS1 DEMAND BYPASS PIPE INLET NODE,HEATSYS1 DEMAND BYPASS PIPE OUTLET NODE,Pipe Nodes
 Component Set,49,BRANCH,HEATSYS1 DEMAND OUTLET BRANCH,PIPE:ADIABATIC,HEATSYS1 DEMAND OUTLET PIPE,HEATSYS1 DEMAND MIXER-HEATSYS1 DEMAND OUTLET PIPE,HEATSYS1 DEMAND OUTLET NODE,Pipe Nodes
 Component Set,50,BRANCH,HEATSYS1 SUPPLY INLET BRANCH,PUMP:VARIABLESPEED,HEATSYS1 PUMP,HEATSYS1 SUPPLY INLET NODE,HEATSYS1 PUMP-HEATSYS1 BOILERNODEVIACONNECTOR,Water Nodes
 Component Set,51,BRANCH,HEATSYS1 SUPPLY OUTLET BRANCH,PIPE:ADIABATIC,HEATSYS1 SUPPLY OUTLET PIPE,HEATSYS1 SUPPLY MIXER-HEATSYS1 SUPPLY OUTLET PIPE,HEATSYS1 SUPPLY OUTLET NODE,Pipe Nodes
 Component Set,52,BRANCH,HEATSYS1 SUPPLY EQUIPMENT BRANCH,BOILER:HOTWATER,HEATSYS1 BOILER,HEATSYS1 PUMP-HEATSYS1 BOILERNODE,HEATSYS1 SUPPLY EQUIPMENT OUTLET NODE,Hot Water Nodes
 Component Set,53,BRANCH,HEATSYS1 SUPPLY EQUIPMENT BYPASS BRANCH,PIPE:ADIABATIC,HEATSYS1 SUPPLY EQUIPMENT BYPASS PIPE,HEATSYS1 SUPPLY EQUIP BYPASS INLET NODE,HEATSYS1 SUPPLY EQUIP BYPASS OUTLET NODE,Pipe Nodes
 Component Set,54,BRANCH,COOLSYS1 DEMAND LOAD BRANCH 1,COIL:COOLING:WATER,AHU-001 COOLC,AHU-001 COOLCDEMAND INLET NODE,AHU-001 COOLCDEMAND OUTLET NODE,Water Nodes
 Component Set,55,BRANCH,COOLSYS1 DEMAND LOAD BRANCH 2,COIL:COOLING:WATER,AHU-002 COOLC,AHU-002 COOLCDEMAND INLET NODE,AHU-002 COOLCDEMAND OUTLET NODE,Water Nodes
 Component Set,56,BRANCH,COOLSYS1 DEMAND LOAD BRANCH 3,COIL:COOLING:WATER,AHU-003 COOLC,AHU-003 COOLCDEMAND INLET NODE,AHU-003 COOLCDEMAND OUTLET NODE,Water Nodes
 Component Set,57,BRANCH,COOLSYS1 DEMAND LOAD BRANCH 4,COIL:COOLING:WATER,AHU-004 COOLC,AHU-004 COOLCDEMAND INLET NODE,AHU-004 COOLCDEMAND OUTLET NODE,Water Nodes
 Component Set,58,BRANCH,COOLSYS1 SUPPLY EQUIPMENT BRANCH 1,PUMP:VARIABLESPEED,COOLSYS1 CHILLER1 PUMP,COOLSYS1 CHILLER1 PUMP INLET NODE,COOLSYS1 PUMP-COOLSYS1 CHILLER1NODE,Water Nodes
 Component Set,59,BRANCH,COOLSYS1 SUPPLY EQUIPMENT BRANCH 1,DISTRICTCOOLING,DISTRICT COOLING,COOLSYS1 PUMP-COOLSYS1 CHILLER1NODE,COOLSYS1 SUPPLY EQUIPMENT OUTLET NODE 1,Chilled Water Nodes
 Component Set,60,BRANCH,COOLSYS1 DEMAND OUTLET BRANCH,PIPE:ADIABATIC,COOLSYS1 DEMAND OUTLET PIPE,COOLSYS1 DEMAND MIXER-COOLSYS1 DEMAND OUTLET PIPE,COOLSYS1 DEMAND OUTLET NODE,Pipe Nodes
 Component Set,61,BRANCH,COOLSYS1 SUPPLY INLET BRANCH,PIPE:ADIABATIC,COOLSYS1 SUPPLY INLET PIPE,COOLSYS1 SUPPLY INLET NODE,COOLSYS1 PUMP-COOLSYS1 CHILLERNODEVIACONNECTOR,Pipe Nodes
 Component Set,62,BRANCH,COOLSYS1 SUPPLY EQUIPMENT BYPASS BRANCH,PIPE:ADIABATIC,COOLSYS1 SUPPLY EQUIPMENT BYPASS PIPE,COOLSYS1 SUPPLY EQUIP BYPASS INLET NODE,COOLSYS1 SUPPLY EQUIP BYPASS OUTLET NODE,Pipe Nodes
 Component Set,63,BRANCH,COOLSYS1 SUPPLY OUTLET BRANCH,PIPE:ADIABATIC,COOLSYS1 SUPPLY OUTLET PIPE,COOLSYS1 SUPPLY MIXER-COOLSYS1 SUPPLY OUTLET PIPE,COOLSYS1 SUPPLY OUTLET NODE,Pipe Nodes
 Component Set,64,BRANCH,FCU-001 AIR LOOP BRANCH,AIRLOOPHVAC:OUTDOORAIRSYSTEM,FCU-001 OA,FCU-001 SUPPLY EQUIPMENT INLET NODE,FCU-001 OA FANNODE,Air Nodes
 Component Set,65,BRANCH,FCU-001 AIR LOOP BRANCH,AIRLOOPHVAC:UNITARYHEATPUMP:AIRTOAIR,FCU-001 HEATPUMP,FCU-001 OA FANNODE,FCU-001 SUPPLY EQUIPMENT OUTLET NODE,Air Nodes
 Component Set,66,BRANCH,FCU-002 AIR LOOP BRANCH,AIRLOOPHVAC:OUTDOORAIRSYSTEM,FCU-002 OA,FCU-002 SUPPLY EQUIPMENT INLET NODE,FCU-002 OA FANNODE,Air Nodes
 Component Set,67,BRANCH,FCU-002 AIR LOOP BRANCH,AIRLOOPHVAC:UNITARYHEATPUMP:AIRTOAIR,FCU-002 HEATPUMP,FCU-002 OA FANNODE,FCU-002 SUPPLY EQUIPMENT OUTLET NODE,Air Nodes
 Component Set,68,BRANCH,FCU-003 AIR LOOP BRANCH,AIRLOOPHVAC:OUTDOORAIRSYSTEM,FCU-003 OA,FCU-003 SUPPLY EQUIPMENT INLET NODE,FCU-003 OA FANNODE,Air Nodes
 Component Set,69,BRANCH,FCU-003 AIR LOOP BRANCH,AIRLOOPHVAC:UNITARYHEATPUMP:AIRTOAIR,FCU-003 HEATPUMP,FCU-003 OA FANNODE,FCU-003 SUPPLY EQUIPMENT OUTLET NODE,Air Nodes
 Component Set,70,BRANCH,COOLSYS1 DEMAND INLET BRANCH,PUMP:VARIABLESPEED,COOLSYS1 PUMP SECONDARY,COOLSYS1 DEMAND INLET NODE,COOLSYS1 PUMP SECONDARY-COOLSYS1 DEMAND MIXER,Water Nodes
 Component Set,71,ZONEHVAC:AIRDISTRIBUTIONUNIT,ZONE-VAV-CORRIDOR VAV BOX,AIRTERMINAL:SINGLEDUCT:VAV:REHEAT,ZONE-VAV-CORRIDOR VAV BOX COMPONENT,ZONE-VAV-CORRIDOR VAV BOX INLET NODE,ZONE-VAV-CORRIDOR VAV BOX OUTLET NODE,Air Nodes
 Component Set,72,ZONEHVAC:AIRDISTRIBUTIONUNIT,ZONE-VAV-RESTROOM VAV BOX,AIRTERMINAL:SINGLEDUCT:VAV:REHEAT,ZONE-VAV-RESTROOM VAV BOX COMPONENT,ZONE-VAV-RESTROOM VAV BOX INLET NODE,ZONE-VAV-RESTROOM VAV BOX OUTLET NODE,Air Nodes
 Component Set,73,ZONEHVAC:AIRDISTRIBUTIONUNIT,ZONE-VAV-102 VAV BOX,AIRTERMINAL:SINGLEDUCT:VAV:REHEAT,ZONE-VAV-102 VAV BOX COMPONENT,ZONE-VAV-102 VAV BOX INLET NODE,ZONE-VAV-102 VAV BOX OUTLET NODE,Air Nodes
 Component Set,74,ZONEHVAC:AIRDISTRIBUTIONUNIT,ZONE-VAV-104 VAV BOX,AIRTERMINAL:SINGLEDUCT:VAV:REHEAT,ZONE-VAV-104 VAV BOX COMPONENT,ZONE-VAV-104 VAV BOX INLET NODE,ZONE-VAV-104 VAV BOX OUTLET NODE,Air Nodes
 Component Set,75,ZONEHVAC:AIRDISTRIBUTIONUNIT,ZONE-VAV-105 VAV BOX,AIRTERMINAL:SINGLEDUCT:VAV:REHEAT,ZONE-VAV-105 VAV BOX COMPONENT,ZONE-VAV-105 VAV BOX INLET NODE,ZONE-VAV-105 VAV BOX OUTLET NODE,Air Nodes
 Component Set,76,ZONEHVAC:AIRDISTRIBUTIONUNIT,ZONE-VAV-107 VAV BOX,AIRTERMINAL:SINGLEDUCT:VAV:REHEAT,ZONE-VAV-107 VAV BOX COMPONENT,ZONE-VAV-107 VAV BOX INLET NODE,ZONE-VAV-107 VAV BOX OUTLET NODE,Air Nodes
 Component Set,77,ZONEHVAC:AIRDISTRIBUTIONUNIT,ZONE-VAV-108 VAV BOX,AIRTERMINAL:SINGLEDUCT:VAV:REHEAT,ZONE-VAV-108 VAV BOX COMPONENT,ZONE-VAV-108 VAV BOX INLET NODE,ZONE-VAV-108 VAV BOX OUTLET NODE,Air Nodes
 Component Set,78,ZONEHVAC:AIRDISTRIBUTIONUNIT,ZONE-VAV-112 VAV BOX,AIRTERMINAL:SINGLEDUCT:VAV:REHEAT,ZONE-VAV-112 VAV BOX COMPONENT,ZONE-VAV-112 VAV BOX INLET NODE,ZONE-VAV-112 VAV BOX OUTLET NODE,Air Nodes
 Component Set,79,ZONEHVAC:AIRDISTRIBUTIONUNIT,ZONE-VAV-116 VAV BOX,AIRTERMINAL:SINGLEDUCT:VAV:REHEAT,ZONE-VAV-116 VAV BOX COMPONENT,ZONE-VAV-116 VAV BOX INLET NODE,ZONE-VAV-116 VAV BOX OUTLET NODE,Air Nodes
 Component Set,80,ZONEHVAC:AIRDISTRIBUTIONUNIT,ZONE-VAV-118 VAV BOX,AIRTERMINAL:SINGLEDUCT:VAV:REHEAT,ZONE-VAV-118 VAV BOX COMPONENT,ZONE-VAV-118 VAV BOX INLET NODE,ZONE-VAV-118 VAV BOX OUTLET NODE,Air Nodes
 Component Set,81,ZONEHVAC:AIRDISTRIBUTIONUNIT,ZONE-VAV-119 VAV BOX,AIRTERMINAL:SINGLEDUCT:VAV:REHEAT,ZONE-VAV-119 VAV BOX COMPONENT,ZONE-VAV-119 VAV BOX INLET NODE,ZONE-VAV-119 VAV BOX OUTLET NODE,Air Nodes
 Component Set,82,ZONEHVAC:AIRDISTRIBUTIONUNIT,ZONE-VAV-120 VAV BOX,AIRTERMINAL:SINGLEDUCT:VAV:REHEAT,ZONE-VAV-120 VAV BOX COMPONENT,ZONE-VAV-120 VAV BOX INLET NODE,ZONE-VAV-120 VAV BOX OUTLET NODE,Air Nodes
 Component Set,83,ZONEHVAC:AIRDISTRIBUTIONUNIT,ZONE-VAV-123A VAV BOX,AIRTERMINAL:SINGLEDUCT:VAV:REHEAT,ZONE-VAV-123A VAV BOX COMPONENT,ZONE-VAV-123A VAV BOX INLET NODE,ZONE-VAV-123A VAV BOX OUTLET NODE,Air Nodes
 Component Set,84,ZONEHVAC:AIRDISTRIBUTIONUNIT,ZONE-VAV-123B VAV BOX,AIRTERMINAL:SINGLEDUCT:VAV:REHEAT,ZONE-VAV-123B VAV BOX COMPONENT,ZONE-VAV-123B VAV BOX INLET NODE,ZONE-VAV-123B VAV BOX OUTLET NODE,Air Nodes
 Component Set,85,ZONEHVAC:AIRDISTRIBUTIONUNIT,ZONE-VAV-127A VAV BOX,AIRTERMINAL:SINGLEDUCT:VAV:REHEAT,ZONE-VAV-127A VAV BOX COMPONENT,ZONE-VAV-127A VAV BOX INLET NODE,ZONE-VAV-127A VAV BOX OUTLET NODE,Air Nodes
 Component Set,86,ZONEHVAC:AIRDISTRIBUTIONUNIT,ZONE-VAV-127B VAV BOX,AIRTERMINAL:SINGLEDUCT:VAV:REHEAT,ZONE-VAV-127B VAV BOX COMPONENT,ZONE-VAV-127B VAV BOX INLET NODE,ZONE-VAV-127B VAV BOX OUTLET NODE,Air Nodes
 Component Set,87,ZONEHVAC:AIRDISTRIBUTIONUNIT,ZONE-VAV-129 VAV BOX,AIRTERMINAL:SINGLEDUCT:VAV:REHEAT,ZONE-VAV-129 VAV BOX COMPONENT,ZONE-VAV-129 VAV BOX INLET NODE,ZONE-VAV-129 VAV BOX OUTLET NODE,Air Nodes
 Component Set,88,ZONEHVAC:AIRDISTRIBUTIONUNIT,ZONE-VAV-131 VAV BOX,AIRTERMINAL:SINGLEDUCT:VAV:REHEAT,ZONE-VAV-131 VAV BOX COMPONENT,ZONE-VAV-131 VAV BOX INLET NODE,ZONE-VAV-131 VAV BOX OUTLET NODE,Air Nodes
 Component Set,89,ZONEHVAC:AIRDISTRIBUTIONUNIT,ZONE-VAV-136 VAV BOX,AIRTERMINAL:SINGLEDUCT:VAV:REHEAT,ZONE-VAV-136 VAV BOX COMPONENT,ZONE-VAV-136 VAV BOX INLET NODE,ZONE-VAV-136 VAV BOX OUTLET NODE,Air Nodes
 Component Set,90,ZONEHVAC:AIRDISTRIBUTIONUNIT,ZONE-VAV-133 VAV BOX,AIRTERMINAL:SINGLEDUCT:VAV:REHEAT,ZONE-VAV-133 VAV BOX COMPONENT,ZONE-VAV-133 VAV BOX INLET NODE,ZONE-VAV-133 VAV BOX OUTLET NODE,Air Nodes
 Component Set,91,ZONEHVAC:AIRDISTRIBUTIONUNIT,ZONE-VAV-142 VAV BOX,AIRTERMINAL:SINGLEDUCT:VAV:REHEAT,ZONE-VAV-142 VAV BOX COMPONENT,ZONE-VAV-142 VAV BOX INLET NODE,ZONE-VAV-142 VAV BOX OUTLET NODE,Air Nodes
 Component Set,92,ZONEHVAC:AIRDISTRIBUTIONUNIT,ZONE-VAV-143 VAV BOX,AIRTERMINAL:SINGLEDUCT:VAV:REHEAT,ZONE-VAV-143 VAV BOX COMPONENT,ZONE-VAV-143 VAV BOX INLET NODE,ZONE-VAV-143 VAV BOX OUTLET NODE,Air Nodes
 Component Set,93,ZONEHVAC:AIRDISTRIBUTIONUNIT,ZONE-VAV-150 VAV BOX,AIRTERMINAL:SINGLEDUCT:VAV:REHEAT,ZONE-VAV-150 VAV BOX COMPONENT,ZONE-VAV-150 VAV BOX INLET NODE,ZONE-VAV-150 VAV BOX OUTLET NODE,Air Nodes
 Component Set,94,AIRTERMINAL:SINGLEDUCT:VAV:REHEAT,ZONE-VAV-CORRIDOR VAV BOX COMPONENT,COIL:HEATING:WATER,ZONE-VAV-CORRIDOR VAV BOX REHEAT COIL,ZONE-VAV-CORRIDOR VAV BOX DAMPER NODE,ZONE-VAV-CORRIDOR VAV BOX OUTLET NODE,Air Nodes
 Component Set,95,AIRTERMINAL:SINGLEDUCT:VAV:REHEAT,ZONE-VAV-102 VAV BOX COMPONENT,COIL:HEATING:WATER,ZONE-VAV-102 VAV BOX REHEAT COIL,ZONE-VAV-102 VAV BOX DAMPER NODE,ZONE-VAV-102 VAV BOX OUTLET NODE,Air Nodes
 Component Set,96,AIRTERMINAL:SINGLEDUCT:VAV:REHEAT,ZONE-VAV-104 VAV BOX COMPONENT,COIL:HEATING:WATER,ZONE-VAV-104 VAV BOX REHEAT COIL,ZONE-VAV-104 VAV BOX DAMPER NODE,ZONE-VAV-104 VAV BOX OUTLET NODE,Air Nodes
 Component Set,97,AIRTERMINAL:SINGLEDUCT:VAV:REHEAT,ZONE-VAV-105 VAV BOX COMPONENT,COIL:HEATING:WATER,ZONE-VAV-105 VAV BOX REHEAT COIL,ZONE-VAV-105 VAV BOX DAMPER NODE,ZONE-VAV-105 VAV BOX OUTLET NODE,Air Nodes
 Component Set,98,AIRTERMINAL:SINGLEDUCT:VAV:REHEAT,ZONE-VAV-107 VAV BOX COMPONENT,COIL:HEATING:WATER,ZONE-VAV-107 VAV BOX REHEAT COIL,ZONE-VAV-107 VAV BOX DAMPER NODE,ZONE-VAV-107 VAV BOX OUTLET NODE,Air Nodes
 Component Set,99,AIRTERMINAL:SINGLEDUCT:VAV:REHEAT,ZONE-VAV-108 VAV BOX COMPONENT,COIL:HEATING:WATER,ZONE-VAV-108 VAV BOX REHEAT COIL,ZONE-VAV-108 VAV BOX DAMPER NODE,ZONE-VAV-108 VAV BOX OUTLET NODE,Air Nodes
 Component Set,100,AIRTERMINAL:SINGLEDUCT:VAV:REHEAT,ZONE-VAV-112 VAV BOX COMPONENT,COIL:HEATING:WATER,ZONE-VAV-112 VAV BOX REHEAT COIL,ZONE-VAV-112 VAV BOX DAMPER NODE,ZONE-VAV-112 VAV BOX OUTLET NODE,Air Nodes
 Component Set,101,AIRTERMINAL:SINGLEDUCT:VAV:REHEAT,ZONE-VAV-116 VAV BOX COMPONENT,COIL:HEATING:WATER,ZONE-VAV-116 VAV BOX REHEAT COIL,ZONE-VAV-116 VAV BOX DAMPER NODE,ZONE-VAV-116 VAV BOX OUTLET NODE,Air Nodes
 Component Set,102,AIRTERMINAL:SINGLEDUCT:VAV:REHEAT,ZONE-VAV-118 VAV BOX COMPONENT,COIL:HEATING:WATER,ZONE-VAV-118 VAV BOX REHEAT COIL,ZONE-VAV-118 VAV BOX DAMPER NODE,ZONE-VAV-118 VAV BOX OUTLET NODE,Air Nodes
 Component Set,103,AIRTERMINAL:SINGLEDUCT:VAV:REHEAT,ZONE-VAV-119 VAV BOX COMPONENT,COIL:HEATING:WATER,ZONE-VAV-119 VAV BOX REHEAT COIL,ZONE-VAV-119 VAV BOX DAMPER NODE,ZONE-VAV-119 VAV BOX OUTLET NODE,Air Nodes
 Component Set,104,AIRTERMINAL:SINGLEDUCT:VAV:REHEAT,ZONE-VAV-120 VAV BOX COMPONENT,COIL:HEATING:WATER,ZONE-VAV-120 VAV BOX REHEAT COIL,ZONE-VAV-120 VAV BOX DAMPER NODE,ZONE-VAV-120 VAV BOX OUTLET NODE,Air Nodes
 Component Set,105,AIRTERMINAL:SINGLEDUCT:VAV:REHEAT,ZONE-VAV-123A VAV BOX COMPONENT,COIL:HEATING:WATER,ZONE-VAV-123A VAV BOX REHEAT COIL,ZONE-VAV-123A VAV BOX DAMPER NODE,ZONE-VAV-123A VAV BOX OUTLET NODE,Air Nodes
 Component Set,106,AIRTERMINAL:SINGLEDUCT:VAV:REHEAT,ZONE-VAV-123B VAV BOX COMPONENT,COIL:HEATING:WATER,ZONE-VAV-123B VAV BOX REHEAT COIL,ZONE-VAV-123B VAV BOX DAMPER NODE,ZONE-VAV-123B VAV BOX OUTLET NODE,Air Nodes
 Component Set,107,AIRTERMINAL:SINGLEDUCT:VAV:REHEAT,ZONE-VAV-127A VAV BOX COMPONENT,COIL:HEATING:WATER,ZONE-VAV-127A VAV BOX REHEAT COIL,ZONE-VAV-127A VAV BOX DAMPER NODE,ZONE-VAV-127A VAV BOX OUTLET NODE,Air Nodes
 Component Set,108,AIRTERMINAL:SINGLEDUCT:VAV:REHEAT,ZONE-VAV-127B VAV BOX COMPONENT,COIL:HEATING:WATER,ZONE-VAV-127B VAV BOX REHEAT COIL,ZONE-VAV-127B VAV BOX DAMPER NODE,ZONE-VAV-127B VAV BOX OUTLET NODE,Air Nodes
 Component Set,109,AIRTERMINAL:SINGLEDUCT:VAV:REHEAT,ZONE-VAV-129 VAV BOX COMPONENT,COIL:HEATING:WATER,ZONE-VAV-129 VAV BOX REHEAT COIL,ZONE-VAV-129 VAV BOX DAMPER NODE,ZONE-VAV-129 VAV BOX OUTLET NODE,Air Nodes
 Component Set,110,AIRTERMINAL:SINGLEDUCT:VAV:REHEAT,ZONE-VAV-131 VAV BOX COMPONENT,COIL:HEATING:WATER,ZONE-VAV-131 VAV BOX REHEAT COIL,ZONE-VAV-131 VAV BOX DAMPER NODE,ZONE-VAV-131 VAV BOX OUTLET NODE,Air Nodes
 Component Set,111,AIRTERMINAL:SINGLEDUCT:VAV:REHEAT,ZONE-VAV-136 VAV BOX COMPONENT,COIL:HEATING:WATER,ZONE-VAV-136 VAV BOX REHEAT COIL,ZONE-VAV-136 VAV BOX DAMPER NODE,ZONE-VAV-136 VAV BOX OUTLET NODE,Air Nodes
 Component Set,112,AIRTERMINAL:SINGLEDUCT:VAV:REHEAT,ZONE-VAV-133 VAV BOX COMPONENT,COIL:HEATING:WATER,ZONE-VAV-133 VAV BOX REHEAT COIL,ZONE-VAV-133 VAV BOX DAMPER NODE,ZONE-VAV-133 VAV BOX OUTLET NODE,Air Nodes
 Component Set,113,AIRTERMINAL:SINGLEDUCT:VAV:REHEAT,ZONE-VAV-142 VAV BOX COMPONENT,COIL:HEATING:WATER,ZONE-VAV-142 VAV BOX REHEAT COIL,ZONE-VAV-142 VAV BOX DAMPER NODE,ZONE-VAV-142 VAV BOX OUTLET NODE,Air Nodes
 Component Set,114,AIRTERMINAL:SINGLEDUCT:VAV:REHEAT,ZONE-VAV-143 VAV BOX COMPONENT,COIL:HEATING:WATER,ZONE-VAV-143 VAV BOX REHEAT COIL,ZONE-VAV-143 VAV BOX DAMPER NODE,ZONE-VAV-143 VAV BOX OUTLET NODE,Air Nodes
 Component Set,115,AIRTERMINAL:SINGLEDUCT:VAV:REHEAT,ZONE-VAV-150 VAV BOX COMPONENT,COIL:HEATING:WATER,ZONE-VAV-150 VAV BOX REHEAT COIL,ZONE-VAV-150 VAV BOX DAMPER NODE,ZONE-VAV-150 VAV BOX OUTLET NODE,Air Nodes
 Component Set,116,AIRTERMINAL:SINGLEDUCT:VAV:REHEAT,ZONE-VAV-RESTROOM VAV BOX COMPONENT,COIL:HEATING:WATER,ZONE-VAV-RESTROOM VAV BOX REHEAT COIL,ZONE-VAV-RESTROOM VAV BOX DAMPER NODE,ZONE-VAV-RESTROOM VAV BOX OUTLET NODE,Air Nodes
 Component Set,117,ZONEHVAC:UNITHEATER,ZONE-HTR-001 UNIT HEATER,FAN:CONSTANTVOLUME,ZONE-HTR-001 UNIT HEATERFAN,ZONE-HTR-001 UNIT HEATER EXHAUST NODE,ZONE-HTR-001 UNIT HEATER POST FAN NODE,Air Nodes
 Component Set,118,ZONEHVAC:UNITHEATER,ZONE-HTR-002 UNIT HEATER,FAN:CONSTANTVOLUME,ZONE-HTR-002 UNIT HEATERFAN,ZONE-HTR-002 UNIT HEATER EXHAUST NODE,ZONE-HTR-002 UNIT HEATER POST FAN NODE,Air Nodes
 Component Set,119,ZONEHVAC:UNITHEATER,ZONE-HTR-003 UNIT HEATER,FAN:CONSTANTVOLUME,ZONE-HTR-003 UNIT HEATERFAN,ZONE-HTR-003 UNIT HEATER EXHAUST NODE,ZONE-HTR-003 UNIT HEATER POST FAN NODE,Air Nodes
 Component Set,120,ZONEHVAC:UNITHEATER,ZONE-HTR-004 UNIT HEATER,FAN:CONSTANTVOLUME,ZONE-HTR-004 UNIT HEATERFAN,ZONE-HTR-004 UNIT HEATER EXHAUST NODE,ZONE-HTR-004 UNIT HEATER POST FAN NODE,Air Nodes
 Component Set,121,AIRLOOPHVAC:UNITARYHEATPUMP:AIRTOAIR,FCU-001 HEATPUMP,FAN:ONOFF,FCU-001 FAN,FCU-001 OA FANNODE,FCU-001 FAN COOLC NODE,Air Nodes
 Component Set,122,AIRLOOPHVAC:UNITARYHEATPUMP:AIRTOAIR,FCU-002 HEATPUMP,FAN:ONOFF,FCU-002 FAN,FCU-002 OA FANNODE,FCU-002 FAN COOLC NODE,Air Nodes
 Component Set,123,AIRLOOPHVAC:UNITARYHEATPUMP:AIRTOAIR,FCU-003 HEATPUMP,FAN:ONOFF,FCU-003 FAN,FCU-003 OA FANNODE,FCU-003 FAN COOLC NODE,Air Nodes
 Component Set,124,ZONEHVAC:UNITHEATER,ZONE-HTR-001 UNIT HEATER,COIL:HEATING:ELECTRIC,ZONE-HTR-001 UNIT HEATER COIL,ZONE-HTR-001 UNIT HEATER POST FAN NODE,ZONE-HTR-001 UNIT HEATER INLET NODE NAME,Air Nodes
 Component Set,125,ZONEHVAC:UNITHEATER,ZONE-HTR-002 UNIT HEATER,COIL:HEATING:ELECTRIC,ZONE-HTR-002 UNIT HEATER COIL,ZONE-HTR-002 UNIT HEATER POST FAN NODE,ZONE-HTR-002 UNIT HEATER INLET NODE NAME,Air Nodes
 Component Set,126,ZONEHVAC:UNITHEATER,ZONE-HTR-003 UNIT HEATER,COIL:HEATING:ELECTRIC,ZONE-HTR-003 UNIT HEATER COIL,ZONE-HTR-003 UNIT HEATER POST FAN NODE,ZONE-HTR-003 UNIT HEATER INLET NODE NAME,Air Nodes
 Component Set,127,ZONEHVAC:UNITHEATER,ZONE-HTR-004 UNIT HEATER,COIL:HEATING:ELECTRIC,ZONE-HTR-004 UNIT HEATER COIL,ZONE-HTR-004 UNIT HEATER POST FAN NODE,ZONE-HTR-004 UNIT HEATER INLET NODE NAME,Air Nodes
 Component Set,128,AIRLOOPHVAC:UNITARYHEATPUMP:AIRTOAIR,FCU-001 HEATPUMP,COIL:HEATING:ELECTRIC,FCU-001 HEAT PUMP DX SUPP HEATING COIL,FCU-001 HEATC FANNODE,FCU-001 SUPPLY EQUIPMENT OUTLET NODE,Air Nodes
 Component Set,129,AIRLOOPHVAC:UNITARYHEATPUMP:AIRTOAIR,FCU-002 HEATPUMP,COIL:HEATING:ELECTRIC,FCU-002 HEAT PUMP DX SUPP HEATING COIL,FCU-002 HEATC FANNODE,FCU-002 SUPPLY EQUIPMENT OUTLET NODE,Air Nodes
 Component Set,130,AIRLOOPHVAC:UNITARYHEATPUMP:AIRTOAIR,FCU-003 HEATPUMP,COIL:HEATING:ELECTRIC,FCU-003 HEAT PUMP DX SUPP HEATING COIL,FCU-003 HEATC FANNODE,FCU-003 SUPPLY EQUIPMENT OUTLET NODE,Air Nodes
 Component Set,131,AIRLOOPHVAC:OUTDOORAIRSYSTEM,AHU-001 OA,HEATEXCHANGER:AIRTOAIR:SENSIBLEANDLATENT,AHU-001 OA HEAT RECOVERY,AHU-001 OAINLET NODE,AHU-001 HEAT RECOVERY OUTLET NODE,Process Air Nodes
 Component Set,132,AIRLOOPHVAC:OUTDOORAIRSYSTEM,AHU-001 OA,OUTDOORAIR:MIXER,AHU-001 OAMIXING BOX,AHU-001 HEAT RECOVERY OUTLET NODE,AHU-001 OA COOLCNODE,Air Nodes
 Component Set,133,AIRLOOPHVAC:OUTDOORAIRSYSTEM,AHU-002 OA,OUTDOORAIR:MIXER,AHU-002 OAMIXING BOX,AHU-002 OAINLET NODE,AHU-002 OA COOLCNODE,Air Nodes
 Component Set,134,AIRLOOPHVAC:OUTDOORAIRSYSTEM,AHU-003 OA,HEATEXCHANGER:AIRTOAIR:SENSIBLEANDLATENT,AHU-003 OA HEAT RECOVERY,AHU-003 OAINLET NODE,AHU-003 HEAT RECOVERY OUTLET NODE,Process Air Nodes
 Component Set,135,AIRLOOPHVAC:OUTDOORAIRSYSTEM,AHU-003 OA,OUTDOORAIR:MIXER,AHU-003 OAMIXING BOX,AHU-003 HEAT RECOVERY OUTLET NODE,AHU-003 OA COOLCNODE,Air Nodes
 Component Set,136,AIRLOOPHVAC:OUTDOORAIRSYSTEM,AHU-004 OA,HEATEXCHANGER:AIRTOAIR:SENSIBLEANDLATENT,AHU-004 OA HEAT RECOVERY,AHU-004 OAINLET NODE,AHU-004 HEAT RECOVERY OUTLET NODE,Process Air Nodes
 Component Set,137,AIRLOOPHVAC:OUTDOORAIRSYSTEM,AHU-004 OA,OUTDOORAIR:MIXER,AHU-004 OAMIXING BOX,AHU-004 HEAT RECOVERY OUTLET NODE,AHU-004 OA COOLCNODE,Air Nodes
 Component Set,138,AIRLOOPHVAC:OUTDOORAIRSYSTEM,AHU-005 OA,OUTDOORAIR:MIXER,AHU-005 OAMIXING BOX,AHU-005 OAINLET NODE,AHU-005 OA FANNODE,Air Nodes
 Component Set,139,AIRLOOPHVAC:OUTDOORAIRSYSTEM,FCU-001 OA,OUTDOORAIR:MIXER,FCU-001 OAMIXING BOX,FCU-001 OAINLET NODE,FCU-001 OA FANNODE,Air Nodes
 Component Set,140,AIRLOOPHVAC:OUTDOORAIRSYSTEM,FCU-002 OA,OUTDOORAIR:MIXER,FCU-002 OAMIXING BOX,FCU-002 OAINLET NODE,FCU-002 OA FANNODE,Air Nodes
 Component Set,141,AIRLOOPHVAC:OUTDOORAIRSYSTEM,FCU-003 OA,OUTDOORAIR:MIXER,FCU-003 OAMIXING BOX,FCU-003 OAINLET NODE,FCU-003 OA FANNODE,Air Nodes
 Component Set,142,AIRLOOPHVAC:UNITARYHEATPUMP:AIRTOAIR,FCU-001 HEATPUMP,COIL:COOLING:DX:SINGLESPEED,FCU-001 COOLC,FCU-001 FAN COOLC NODE,FCU-001 COOLC HEATCNODE,Air Nodes
 Component Set,143,AIRLOOPHVAC:UNITARYHEATPUMP:AIRTOAIR,FCU-002 HEATPUMP,COIL:COOLING:DX:SINGLESPEED,FCU-002 COOLC,FCU-002 FAN COOLC NODE,FCU-002 COOLC HEATCNODE,Air Nodes
 Component Set,144,AIRLOOPHVAC:UNITARYHEATPUMP:AIRTOAIR,FCU-003 HEATPUMP,COIL:COOLING:DX:SINGLESPEED,FCU-003 COOLC,FCU-003 FAN COOLC NODE,FCU-003 COOLC HEATCNODE,Air Nodes
 Component Set,145,COILSYSTEM:COOLING:DX,AHU-005 COOLC,COIL:COOLING:DX:SINGLESPEED,AHU-005 COOLC DXCOIL,AHU-005 FAN COOLC NODE,AHU-005 SUPPLY EQUIPMENT OUTLET NODE,Air Nodes
 Component Set,146,AIRLOOPHVAC:UNITARYHEATPUMP:AIRTOAIR,FCU-001 HEATPUMP,COIL:HEATING:DX:SINGLESPEED,FCU-001 HEATC,FCU-001 COOLC HEATCNODE,FCU-001 HEATC FANNODE,Air Nodes
 Component Set,147,AIRLOOPHVAC:UNITARYHEATPUMP:AIRTOAIR,FCU-002 HEATPUMP,COIL:HEATING:DX:SINGLESPEED,FCU-002 HEATC,FCU-002 COOLC HEATCNODE,FCU-002 HEATC FANNODE,Air Nodes
 Component Set,148,AIRLOOPHVAC:UNITARYHEATPUMP:AIRTOAIR,FCU-003 HEATPUMP,COIL:HEATING:DX:SINGLESPEED,FCU-003 HEATC,FCU-003 COOLC HEATCNODE,FCU-003 HEATC FANNODE,Air Nodes
! ===============================================================
! <# Plant Loops>,<Number of Plant Loops>
 #Plant Loops,2
! <Plant Loop>,<Plant Loop Name>,<Loop Type>,<Inlet Node Name>,<Outlet Node Name>,<Branch List>,<Connector List>
! <Plant Loop Connector>,<Connector Type>,<Connector Name>,<Loop Name>,<Loop Type>,<Number of Inlets/Outlets>
! <Plant Loop Connector Branches>,<Connector Node Count>,<Connector Type>,<Connector Name>,<Inlet Branch>,<Outlet Branch>,<Loop Name>,<Loop Type>
! <Plant Loop Connector Nodes>,<Connector Node Count>,<Connector Type>,<Connector Name>,<Inlet Node>,<Outlet Node>,<Loop Name>,<Loop Type>
[...]
 Non-Parent Node Connection,FCU-002 OA FANNODE,FAN:ONOFF,FCU-002 FAN,Inlet,1
 Non-Parent Node Connection,FCU-002 FAN COOLC NODE,FAN:ONOFF,FCU-002 FAN,Outlet,1
 Non-Parent Node Connection,FCU-003 OA FANNODE,FAN:ONOFF,FCU-003 FAN,Inlet,1
 Non-Parent Node Connection,FCU-003 FAN COOLC NODE,FAN:ONOFF,FCU-003 FAN,Outlet,1
 Non-Parent Node Connection,ZONE-HTR-001 UNIT HEATER POST FAN NODE,COIL:HEATING:ELECTRIC,ZONE-HTR-001 UNIT HEATER COIL,Inlet,1
 Non-Parent Node Connection,ZONE-HTR-001 UNIT HEATER INLET NODE NAME,COIL:HEATING:ELECTRIC,ZONE-HTR-001 UNIT HEATER COIL,Outlet,1
 Non-Parent Node Connection,ZONE-HTR-002 UNIT HEATER POST FAN NODE,COIL:HEATING:ELECTRIC,ZONE-HTR-002 UNIT HEATER COIL,Inlet,1
 Non-Parent Node Connection,ZONE-HTR-002 UNIT HEATER INLET NODE NAME,COIL:HEATING:ELECTRIC,ZONE-HTR-002 UNIT HEATER COIL,Outlet,1
 Non-Parent Node Connection,ZONE-HTR-003 UNIT HEATER POST FAN NODE,COIL:HEATING:ELECTRIC,ZONE-HTR-003 UNIT HEATER COIL,Inlet,1
 Non-Parent Node Connection,ZONE-HTR-003 UNIT HEATER INLET NODE NAME,COIL:HEATING:ELECTRIC,ZONE-HTR-003 UNIT HEATER COIL,Outlet,1
 Non-Parent Node Connection,ZONE-HTR-004 UNIT HEATER POST FAN NODE,COIL:HEATING:ELECTRIC,ZONE-HTR-004 UNIT HEATER COIL,Inlet,1
 Non-Parent Node Connection,ZONE-HTR-004 UNIT HEATER INLET NODE NAME,COIL:HEATING:ELECTRIC,ZONE-HTR-004 UNIT HEATER COIL,Outlet,1
 Non-Parent Node Connection,FCU-001 HEATC FANNODE,COIL:HEATING:ELECTRIC,FCU-001 HEAT PUMP DX SUPP HEATING COIL,Inlet,1
 Non-Parent Node Connection,FCU-001 SUPPLY EQUIPMENT OUTLET NODE,COIL:HEATING:ELECTRIC,FCU-001 HEAT PUMP DX SUPP HEATING COIL,Outlet,1
 Non-Parent Node Connection,FCU-002 HEATC FANNODE,COIL:HEATING:ELECTRIC,FCU-002 HEAT PUMP DX SUPP HEATING COIL,Inlet,1
 Non-Parent Node Connection,FCU-002 SUPPLY EQUIPMENT OUTLET NODE,COIL:HEATING:ELECTRIC,FCU-002 HEAT PUMP DX SUPP HEATING COIL,Outlet,1
 Non-Parent Node Connection,FCU-003 HEATC FANNODE,COIL:HEATING:ELECTRIC,FCU-003 HEAT PUMP DX SUPP HEATING COIL,Inlet,1
 Non-Parent Node Connection,FCU-003 SUPPLY EQUIPMENT OUTLET NODE,COIL:HEATING:ELECTRIC,FCU-003 HEAT PUMP DX SUPP HEATING COIL,Outlet,1
 Non-Parent Node Connection,ZONE-AHU-002 DIRECT AIR INLET NODE NAME,AIRTERMINAL:SINGLEDUCT:UNCONTROLLED,ZONE-AHU-002 DIRECT AIR,Outlet,1
 Non-Parent Node Connection,ZONE-AHU-004 DIRECT AIR INLET NODE NAME,AIRTERMINAL:SINGLEDUCT:UNCONTROLLED,ZONE-AHU-004 DIRECT AIR,Outlet,1
 Non-Parent Node Connection,ZONE-AHU-005 DIRECT AIR INLET NODE NAME,AIRTERMINAL:SINGLEDUCT:UNCONTROLLED,ZONE-AHU-005 DIRECT AIR,Outlet,1
 Non-Parent Node Connection,ZONE-FCU-001 DIRECT AIR INLET NODE NAME,AIRTERMINAL:SINGLEDUCT:UNCONTROLLED,ZONE-FCU-001 DIRECT AIR,Outlet,1
 Non-Parent Node Connection,ZONE-FCU-002 DIRECT AIR INLET NODE NAME,AIRTERMINAL:SINGLEDUCT:UNCONTROLLED,ZONE-FCU-002 DIRECT AIR,Outlet,1
 Non-Parent Node Connection,ZONE-FCU-003 DIRECT AIR INLET NODE NAME,AIRTERMINAL:SINGLEDUCT:UNCONTROLLED,ZONE-FCU-003 DIRECT AIR,Outlet,1
 Non-Parent Node Connection,AHU-001 ZONE EQUIPMENT OUTLET NODE,AIRLOOPHVAC:ZONEMIXER,AHU-001 RETURN AIR MIXER,Outlet,1
 Non-Parent Node Connection,ZONE-VAV-CORRIDOR RETURN AIR NODE,AIRLOOPHVAC:ZONEMIXER,AHU-001 RETURN AIR MIXER,Inlet,1
 Non-Parent Node Connection,ZONE-VAV-102 RETURN AIR NODE,AIRLOOPHVAC:ZONEMIXER,AHU-001 RETURN AIR MIXER,Inlet,1
 Non-Parent Node Connection,ZONE-VAV-118 RETURN AIR NODE,AIRLOOPHVAC:ZONEMIXER,AHU-001 RETURN AIR MIXER,Inlet,1
 Non-Parent Node Connection,ZONE-VAV-119 RETURN AIR NODE,AIRLOOPHVAC:ZONEMIXER,AHU-001 RETURN AIR MIXER,Inlet,1
 Non-Parent Node Connection,ZONE-VAV-120 RETURN AIR NODE,AIRLOOPHVAC:ZONEMIXER,AHU-001 RETURN AIR MIXER,Inlet,1
 Non-Parent Node Connection,ZONE-VAV-123A RETURN AIR NODE,AIRLOOPHVAC:ZONEMIXER,AHU-001 RETURN AIR MIXER,Inlet,1
 Non-Parent Node Connection,ZONE-VAV-123B RETURN AIR NODE,AIRLOOPHVAC:ZONEMIXER,AHU-001 RETURN AIR MIXER,Inlet,1
 Non-Parent Node Connection,ZONE-VAV-127A RETURN AIR NODE,AIRLOOPHVAC:ZONEMIXER,AHU-001 RETURN AIR MIXER,Inlet,1
 Non-Parent Node Connection,ZONE-VAV-127B RETURN AIR NODE,AIRLOOPHVAC:ZONEMIXER,AHU-001 RETURN AIR MIXER,Inlet,1
 Non-Parent Node Connection,ZONE-VAV-129 RETURN AIR NODE,AIRLOOPHVAC:ZONEMIXER,AHU-001 RETURN AIR MIXER,Inlet,1
 Non-Parent Node Connection,ZONE-VAV-131 RETURN AIR NODE,AIRLOOPHVAC:ZONEMIXER,AHU-001 RETURN AIR MIXER,Inlet,1
 Non-Parent Node Connection,ZONE-VAV-136 RETURN AIR NODE,AIRLOOPHVAC:ZONEMIXER,AHU-001 RETURN AIR MIXER,Inlet,1
 Non-Parent Node Connection,ZONE-VAV-133 RETURN AIR NODE,AIRLOOPHVAC:ZONEMIXER,AHU-001 RETURN AIR MIXER,Inlet,1
 Non-Parent Node Connection,ZONE-VAV-142 RETURN AIR NODE,AIRLOOPHVAC:ZONEMIXER,AHU-001 RETURN AIR MIXER,Inlet,1
 Non-Parent Node Connection,ZONE-VAV-143 RETURN AIR NODE,AIRLOOPHVAC:ZONEMIXER,AHU-001 RETURN AIR MIXER,Inlet,1
 Non-Parent Node Connection,ZONE-VAV-150 RETURN AIR NODE,AIRLOOPHVAC:ZONEMIXER,AHU-001 RETURN AIR MIXER,Inlet,1
 Non-Parent Node Connection,ZONE-VAV-RESTROOM RETURN AIR NODE,AIRLOOPHVAC:ZONEMIXER,AHU-001 RETURN AIR MIXER,Inlet,1
 Non-Parent Node Connection,AHU-002 ZONE EQUIPMENT OUTLET NODE,AIRLOOPHVAC:ZONEMIXER,AHU-002 RETURN AIR MIXER,Outlet,1
 Non-Parent Node Connection,ZONE-AHU-002 RETURN AIR NODE,AIRLOOPHVAC:ZONEMIXER,AHU-002 RETURN AIR MIXER,Inlet,1
 Non-Parent Node Connection,AHU-003 ZONE EQUIPMENT OUTLET NODE,AIRLOOPHVAC:ZONEMIXER,AHU-003 RETURN AIR MIXER,Outlet,1
 Non-Parent Node Connection,ZONE-VAV-104 RETURN AIR NODE,AIRLOOPHVAC:ZONEMIXER,AHU-003 RETURN AIR MIXER,Inlet,1
 Non-Parent Node Connection,ZONE-VAV-105 RETURN AIR NODE,AIRLOOPHVAC:ZONEMIXER,AHU-003 RETURN AIR MIXER,Inlet,1
 Non-Parent Node Connection,ZONE-VAV-107 RETURN AIR NODE,AIRLOOPHVAC:ZONEMIXER,AHU-003 RETURN AIR MIXER,Inlet,1
 Non-Parent Node Connection,ZONE-VAV-108 RETURN AIR NODE,AIRLOOPHVAC:ZONEMIXER,AHU-003 RETURN AIR MIXER,Inlet,1
 Non-Parent Node Connection,ZONE-VAV-112 RETURN AIR NODE,AIRLOOPHVAC:ZONEMIXER,AHU-003 RETURN AIR MIXER,Inlet,1
 Non-Parent Node Connection,ZONE-VAV-116 RETURN AIR NODE,AIRLOOPHVAC:ZONEMIXER,AHU-003 RETURN AIR MIXER,Inlet,1
 Non-Parent Node Connection,AHU-004 ZONE EQUIPMENT OUTLET NODE,AIRLOOPHVAC:ZONEMIXER,AHU-004 RETURN AIR MIXER,Outlet,1
 Non-Parent Node Connection,ZONE-AHU-004 RETURN AIR NODE,AIRLOOPHVAC:ZONEMIXER,AHU-004 RETURN AIR MIXER,Inlet,1
 Non-Parent Node Connection,AHU-005 ZONE EQUIPMENT OUTLET NODE,AIRLOOPHVAC:ZONEMIXER,AHU-005 RETURN AIR MIXER,Outlet,1
 Non-Parent Node Connection,ZONE-AHU-005 RETURN AIR NODE,AIRLOOPHVAC:ZONEMIXER,AHU-005 RETURN AIR MIXER,Inlet,1
 Non-Parent Node Connection,FCU-001 ZONE EQUIPMENT OUTLET NODE,AIRLOOPHVAC:ZONEMIXER,FCU-001 RETURN AIR MIXER,Outlet,1
 Non-Parent Node Connection,ZONE-FCU-001 RETURN AIR NODE,AIRLOOPHVAC:ZONEMIXER,FCU-001 RETURN AIR MIXER,Inlet,1
 Non-Parent Node Connection,FCU-002 ZONE EQUIPMENT OUTLET NODE,AIRLOOPHVAC:ZONEMIXER,FCU-002 RETURN AIR MIXER,Outlet,1
 Non-Parent Node Connection,ZONE-FCU-002 RETURN AIR NODE,AIRLOOPHVAC:ZONEMIXER,FCU-002 RETURN AIR MIXER,Inlet,1
 Non-Parent Node Connection,FCU-003 ZONE EQUIPMENT OUTLET NODE,AIRLOOPHVAC:ZONEMIXER,FCU-003 RETURN AIR MIXER,Outlet,1
 Non-Parent Node Connection,ZONE-FCU-003 RETURN AIR NODE,AIRLOOPHVAC:ZONEMIXER,FCU-003 RETURN AIR MIXER,Inlet,1
 Non-Parent Node Connection,AHU-001 OA COOLCNODE,OUTDOORAIR:MIXER,AHU-001 OAMIXING BOX,Outlet,1
 Non-Parent Node Connection,AHU-001 HEAT RECOVERY OUTLET NODE,OUTDOORAIR:MIXER,AHU-001 OAMIXING BOX,Inlet,1
 Non-Parent Node Connection,AHU-001 OARELIEF NODE,OUTDOORAIR:MIXER,AHU-001 OAMIXING BOX,ReliefAir,1
 Non-Parent Node Connection,AHU-001 SUPPLY EQUIPMENT INLET NODE,OUTDOORAIR:MIXER,AHU-001 OAMIXING BOX,Inlet,1
 Non-Parent Node Connection,AHU-002 OA COOLCNODE,OUTDOORAIR:MIXER,AHU-002 OAMIXING BOX,Outlet,1
 Non-Parent Node Connection,AHU-002 OAINLET NODE,OUTDOORAIR:MIXER,AHU-002 OAMIXING BOX,Inlet,1
 Non-Parent Node Connection,AHU-002 OARELIEF NODE,OUTDOORAIR:MIXER,AHU-002 OAMIXING BOX,ReliefAir,1
 Non-Parent Node Connection,AHU-002 SUPPLY EQUIPMENT INLET NODE,OUTDOORAIR:MIXER,AHU-002 OAMIXING BOX,Inlet,1
 Non-Parent Node Connection,AHU-003 OA COOLCNODE,OUTDOORAIR:MIXER,AHU-003 OAMIXING BOX,Outlet,1
 Non-Parent Node Connection,AHU-003 HEAT RECOVERY OUTLET NODE,OUTDOORAIR:MIXER,AHU-003 OAMIXING BOX,Inlet,1
 Non-Parent Node Connection,AHU-003 OARELIEF NODE,OUTDOORAIR:MIXER,AHU-003 OAMIXING BOX,ReliefAir,1
 Non-Parent Node Connection,AHU-003 SUPPLY EQUIPMENT INLET NODE,OUTDOORAIR:MIXER,AHU-003 OAMIXING BOX,Inlet,1
 Non-Parent Node Connection,AHU-004 OA COOLCNODE,OUTDOORAIR:MIXER,AHU-004 OAMIXING BOX,Outlet,1
 Non-Parent Node Connection,AHU-004 HEAT RECOVERY OUTLET NODE,OUTDOORAIR:MIXER,AHU-004 OAMIXING BOX,Inlet,1
 Non-Parent Node Connection,AHU-004 OARELIEF NODE,OUTDOORAIR:MIXER,AHU-004 OAMIXING BOX,ReliefAir,1
 Non-Parent Node Connection,AHU-004 SUPPLY EQUIPMENT INLET NODE,OUTDOORAIR:MIXER,AHU-004 OAMIXING BOX,Inlet,1
 Non-Parent Node Connection,AHU-005 OA FANNODE,OUTDOORAIR:MIXER,AHU-005 OAMIXING BOX,Outlet,1
 Non-Parent Node Connection,AHU-005 OAINLET NODE,OUTDOORAIR:MIXER,AHU-005 OAMIXING BOX,Inlet,1
 Non-Parent Node Connection,AHU-005 OARELIEF NODE,OUTDOORAIR:MIXER,AHU-005 OAMIXING BOX,ReliefAir,1
 Non-Parent Node Connection,AHU-005 SUPPLY EQUIPMENT INLET NODE,OUTDOORAIR:MIXER,AHU-005 OAMIXING BOX,Inlet,1
 Non-Parent Node Connection,FCU-001 OA FANNODE,OUTDOORAIR:MIXER,FCU-001 OAMIXING BOX,Outlet,1
 Non-Parent Node Connection,FCU-001 OAINLET NODE,OUTDOORAIR:MIXER,FCU-001 OAMIXING BOX,Inlet,1
 Non-Parent Node Connection,FCU-001 OARELIEF NODE,OUTDOORAIR:MIXER,FCU-001 OAMIXING BOX,ReliefAir,1
 Non-Parent Node Connection,FCU-001 SUPPLY EQUIPMENT INLET NODE,OUTDOORAIR:MIXER,FCU-001 OAMIXING BOX,Inlet,1
 Non-Parent Node Connection,FCU-002 OA FANNODE,OUTDOORAIR:MIXER,FCU-002 OAMIXING BOX,Outlet,1
 Non-Parent Node Connection,FCU-002 OAINLET NODE,OUTDOORAIR:MIXER,FCU-002 OAMIXING BOX,Inlet,1
 Non-Parent Node Connection,FCU-002 OARELIEF NODE,OUTDOORAIR:MIXER,FCU-002 OAMIXING BOX,ReliefAir,1
 Non-Parent Node Connection,FCU-002 SUPPLY EQUIPMENT INLET NODE,OUTDOORAIR:MIXER,FCU-002 OAMIXING BOX,Inlet,1
 Non-Parent Node Connection,FCU-003 OA FANNODE,OUTDOORAIR:MIXER,FCU-003 OAMIXING BOX,Outlet,1
 Non-Parent Node Connection,FCU-003 OAINLET NODE,OUTDOORAIR:MIXER,FCU-003 OAMIXING BOX,Inlet,1
 Non-Parent Node Connection,FCU-003 OARELIEF NODE,OUTDOORAIR:MIXER,FCU-003 OAMIXING BOX,ReliefAir,1
 Non-Parent Node Connection,FCU-003 SUPPLY EQUIPMENT INLET NODE,OUTDOORAIR:MIXER,FCU-003 OAMIXING BOX,Inlet,1
 Non-Parent Node Connection,AHU-001 COOLC HEATCNODE,CONTROLLER:WATERCOIL,AHU-001 COOLC CONTROLLER,Sensor,1
 Non-Parent Node Connection,AHU-001 COOLCDEMAND INLET NODE,CONTROLLER:WATERCOIL,AHU-001 COOLC CONTROLLER,Actuator,1
 Non-Parent Node Connection,AHU-001 HEATC FANNODE,CONTROLLER:WATERCOIL,AHU-001 HEATC CONTROLLER,Sensor,1
 Non-Parent Node Connection,AHU-001 HEATCDEMAND INLET NODE,CONTROLLER:WATERCOIL,AHU-001 HEATC CONTROLLER,Actuator,1
 Non-Parent Node Connection,AHU-002 COOLC HEATCNODE,CONTROLLER:WATERCOIL,AHU-002 COOLC CONTROLLER,Sensor,1
 Non-Parent Node Connection,AHU-002 COOLCDEMAND INLET NODE,CONTROLLER:WATERCOIL,AHU-002 COOLC CONTROLLER,Actuator,1
 Non-Parent Node Connection,AHU-002 HEATC FANNODE,CONTROLLER:WATERCOIL,AHU-002 HEATC CONTROLLER,Sensor,1
 Non-Parent Node Connection,AHU-002 HEATCDEMAND INLET NODE,CONTROLLER:WATERCOIL,AHU-002 HEATC CONTROLLER,Actuator,1
 Non-Parent Node Connection,AHU-003 COOLC HEATCNODE,CONTROLLER:WATERCOIL,AHU-003 COOLC CONTROLLER,Sensor,1
 Non-Parent Node Connection,AHU-003 COOLCDEMAND INLET NODE,CONTROLLER:WATERCOIL,AHU-003 COOLC CONTROLLER,Actuator,1
 Non-Parent Node Connection,AHU-003 HEATC FANNODE,CONTROLLER:WATERCOIL,AHU-003 HEATC CONTROLLER,Sensor,1
 Non-Parent Node Connection,AHU-003 HEATCDEMAND INLET NODE,CONTROLLER:WATERCOIL,AHU-003 HEATC CONTROLLER,Actuator,1
 Non-Parent Node Connection,AHU-004 COOLC HEATCNODE,CONTROLLER:WATERCOIL,AHU-004 COOLC CONTROLLER,Sensor,1
 Non-Parent Node Connection,AHU-004 COOLCDEMAND INLET NODE,CONTROLLER:WATERCOIL,AHU-004 COOLC CONTROLLER,Actuator,1
 Non-Parent Node Connection,AHU-004 HEATC FANNODE,CONTROLLER:WATERCOIL,AHU-004 HEATC CONTROLLER,Sensor,1
 Non-Parent Node Connection,AHU-004 HEATCDEMAND INLET NODE,CONTROLLER:WATERCOIL,AHU-004 HEATC CONTROLLER,Actuator,1
 Non-Parent Node Connection,AHU-005 OA FANNODE,CONTROLLER:OUTDOORAIR,AHU-005 OA CONTROLLER,Sensor,1
 Non-Parent Node Connection,AHU-005 OAINLET NODE,CONTROLLER:OUTDOORAIR,AHU-005 OA CONTROLLER,Actuator,1
 Non-Parent Node Connection,AHU-005 OARELIEF NODE,CONTROLLER:OUTDOORAIR,AHU-005 OA CONTROLLER,Actuator,1
 Non-Parent Node Connection,AHU-005 SUPPLY EQUIPMENT INLET NODE,CONTROLLER:OUTDOORAIR,AHU-005 OA CONTROLLER,Sensor,1
 Non-Parent Node Connection,FCU-001 OA FANNODE,CONTROLLER:OUTDOORAIR,FCU-001 OA CONTROLLER,Sensor,1
 Non-Parent Node Connection,FCU-001 OAINLET NODE,CONTROLLER:OUTDOORAIR,FCU-001 OA CONTROLLER,Actuator,1
 Non-Parent Node Connection,FCU-001 OARELIEF NODE,CONTROLLER:OUTDOORAIR,FCU-001 OA CONTROLLER,Actuator,1
 Non-Parent Node Connection,FCU-001 SUPPLY EQUIPMENT INLET NODE,CONTROLLER:OUTDOORAIR,FCU-001 OA CONTROLLER,Sensor,1
 Non-Parent Node Connection,FCU-002 OA FANNODE,CONTROLLER:OUTDOORAIR,FCU-002 OA CONTROLLER,Sensor,1
 Non-Parent Node Connection,FCU-002 OAINLET NODE,CONTROLLER:OUTDOORAIR,FCU-002 OA CONTROLLER,Actuator,1
 Non-Parent Node Connection,FCU-002 OARELIEF NODE,CONTROLLER:OUTDOORAIR,FCU-002 OA CONTROLLER,Actuator,1
 Non-Parent Node Connection,FCU-002 SUPPLY EQUIPMENT INLET NODE,CONTROLLER:OUTDOORAIR,FCU-002 OA CONTROLLER,Sensor,1
 Non-Parent Node Connection,FCU-003 OA FANNODE,CONTROLLER:OUTDOORAIR,FCU-003 OA CONTROLLER,Sensor,1
 Non-Parent Node Connection,FCU-003 OAINLET NODE,CONTROLLER:OUTDOORAIR,FCU-003 OA CONTROLLER,Actuator,1
 Non-Parent Node Connection,FCU-003 OARELIEF NODE,CONTROLLER:OUTDOORAIR,FCU-003 OA CONTROLLER,Actuator,1
 Non-Parent Node Connection,FCU-003 SUPPLY EQUIPMENT INLET NODE,CONTROLLER:OUTDOORAIR,FCU-003 OA CONTROLLER,Sensor,1
 Non-Parent Node Connection,AHU-003 OA COOLCNODE,CONTROLLER:OUTDOORAIR,AHU-003 OA CONTROLLER,Sensor,1
 Non-Parent Node Connection,AHU-003 OAINLET NODE,CONTROLLER:OUTDOORAIR,AHU-003 OA CONTROLLER,Actuator,1
 Non-Parent Node Connection,AHU-003 OARELIEF NODE,CONTROLLER:OUTDOORAIR,AHU-003 OA CONTROLLER,Actuator,1
 Non-Parent Node Connection,AHU-003 SUPPLY EQUIPMENT INLET NODE,CONTROLLER:OUTDOORAIR,AHU-003 OA CONTROLLER,Sensor,1
 Non-Parent Node Connection,AHU-002 OA COOLCNODE,CONTROLLER:OUTDOORAIR,AHU-002 OA CONTROLLER,Sensor,1
 Non-Parent Node Connection,AHU-002 OAINLET NODE,CONTROLLER:OUTDOORAIR,AHU-002 OA CONTROLLER,Actuator,1
 Non-Parent Node Connection,AHU-002 OARELIEF NODE,CONTROLLER:OUTDOORAIR,AHU-002 OA CONTROLLER,Actuator,1
 Non-Parent Node Connection,AHU-002 SUPPLY EQUIPMENT INLET NODE,CONTROLLER:OUTDOORAIR,AHU-002 OA CONTROLLER,Sensor,1
 Non-Parent Node Connection,AHU-004 OA COOLCNODE,CONTROLLER:OUTDOORAIR,AHU-004 OA CONTROLLER,Sensor,1
 Non-Parent Node Connection,AHU-004 OAINLET NODE,CONTROLLER:OUTDOORAIR,AHU-004 OA CONTROLLER,Actuator,1
 Non-Parent Node Connection,AHU-004 OARELIEF NODE,CONTROLLER:OUTDOORAIR,AHU-004 OA CONTROLLER,Actuator,1
 Non-Parent Node Connection,AHU-004 SUPPLY EQUIPMENT INLET NODE,CONTROLLER:OUTDOORAIR,AHU-004 OA CONTROLLER,Sensor,1
 Non-Parent Node Connection,AHU-001 OA COOLCNODE,CONTROLLER:OUTDOORAIR,AHU-001 OA CONTROLLER,Sensor,1
 Non-Parent Node Connection,AHU-001 OAINLET NODE,CONTROLLER:OUTDOORAIR,AHU-001 OA CONTROLLER,Actuator,1
 Non-Parent Node Connection,AHU-001 OARELIEF NODE,CONTROLLER:OUTDOORAIR,AHU-001 OA CONTROLLER,Actuator,1
 Non-Parent Node Connection,AHU-001 SUPPLY EQUIPMENT INLET NODE,CONTROLLER:OUTDOORAIR,AHU-001 OA CONTROLLER,Sensor,1
 Non-Parent Node Connection,AHU-001 OAINLET NODE,HEATEXCHANGER:AIRTOAIR:SENSIBLEANDLATENT,AHU-001 OA HEAT RECOVERY,Inlet,1
 Non-Parent Node Connection,AHU-001 HEAT RECOVERY OUTLET NODE,HEATEXCHANGER:AIRTOAIR:SENSIBLEANDLATENT,AHU-001 OA HEAT RECOVERY,Outlet,1
 Non-Parent Node Connection,AHU-001 OARELIEF NODE,HEATEXCHANGER:AIRTOAIR:SENSIBLEANDLATENT,AHU-001 OA HEAT RECOVERY,Inlet,2
 Non-Parent Node Connection,AHU-001 HEAT RECOVERY SECONDARY OUTLET NODE,HEATEXCHANGER:AIRTOAIR:SENSIBLEANDLATENT,AHU-001 OA HEAT RECOVERY,Outlet,2
 Non-Parent Node Connection,AHU-003 OAINLET NODE,HEATEXCHANGER:AIRTOAIR:SENSIBLEANDLATENT,AHU-003 OA HEAT RECOVERY,Inlet,1
 Non-Parent Node Connection,AHU-003 HEAT RECOVERY OUTLET NODE,HEATEXCHANGER:AIRTOAIR:SENSIBLEANDLATENT,AHU-003 OA HEAT RECOVERY,Outlet,1
 Non-Parent Node Connection,AHU-003 OARELIEF NODE,HEATEXCHANGER:AIRTOAIR:SENSIBLEANDLATENT,AHU-003 OA HEAT RECOVERY,Inlet,2
 Non-Parent Node Connection,AHU-003 HEAT RECOVERY SECONDARY OUTLET NODE,HEATEXCHANGER:AIRTOAIR:SENSIBLEANDLATENT,AHU-003 OA HEAT RECOVERY,Outlet,2
 Non-Parent Node Connection,AHU-004 OAINLET NODE,HEATEXCHANGER:AIRTOAIR:SENSIBLEANDLATENT,AHU-004 OA HEAT RECOVERY,Inlet,1
 Non-Parent Node Connection,AHU-004 HEAT RECOVERY OUTLET NODE,HEATEXCHANGER:AIRTOAIR:SENSIBLEANDLATENT,AHU-004 OA HEAT RECOVERY,Outlet,1
 Non-Parent Node Connection,AHU-004 OARELIEF NODE,HEATEXCHANGER:AIRTOAIR:SENSIBLEANDLATENT,AHU-004 OA HEAT RECOVERY,Inlet,2
 Non-Parent Node Connection,AHU-004 HEAT RECOVERY SECONDARY OUTLET NODE,HEATEXCHANGER:AIRTOAIR:SENSIBLEANDLATENT,AHU-004 OA HEAT RECOVERY,Outlet,2
 Non-Parent Node Connection,FCU-001 FAN COOLC NODE,COIL:COOLING:DX:SINGLESPEED,FCU-001 COOLC,Inlet,1
 Non-Parent Node Connection,FCU-001 COOLC HEATCNODE,COIL:COOLING:DX:SINGLESPEED,FCU-001 COOLC,Outlet,1
 Non-Parent Node Connection,FCU-002 FAN COOLC NODE,COIL:COOLING:DX:SINGLESPEED,FCU-002 COOLC,Inlet,1
 Non-Parent Node Connection,FCU-002 COOLC HEATCNODE,COIL:COOLING:DX:SINGLESPEED,FCU-002 COOLC,Outlet,1
 Non-Parent Node Connection,FCU-003 FAN COOLC NODE,COIL:COOLING:DX:SINGLESPEED,FCU-003 COOLC,Inlet,1
 Non-Parent Node Connection,FCU-003 COOLC HEATCNODE,COIL:COOLING:DX:SINGLESPEED,FCU-003 COOLC,Outlet,1
 Non-Parent Node Connection,AHU-005 FAN COOLC NODE,COIL:COOLING:DX:SINGLESPEED,AHU-005 COOLC DXCOIL,Inlet,1
 Non-Parent Node Connection,AHU-005 SUPPLY EQUIPMENT OUTLET NODE,COIL:COOLING:DX:SINGLESPEED,AHU-005 COOLC DXCOIL,Outlet,1
 Non-Parent Node Connection,FCU-001 COOLC HEATCNODE,COIL:HEATING:DX:SINGLESPEED,FCU-001 HEATC,Inlet,1
 Non-Parent Node Connection,FCU-001 HEATC FANNODE,COIL:HEATING:DX:SINGLESPEED,FCU-001 HEATC,Outlet,1
 Non-Parent Node Connection,FCU-002 COOLC HEATCNODE,COIL:HEATING:DX:SINGLESPEED,FCU-002 HEATC,Inlet,1
 Non-Parent Node Connection,FCU-002 HEATC FANNODE,COIL:HEATING:DX:SINGLESPEED,FCU-002 HEATC,Outlet,1
 Non-Parent Node Connection,FCU-003 COOLC HEATCNODE,COIL:HEATING:DX:SINGLESPEED,FCU-003 HEATC,Inlet,1
 Non-Parent Node Connection,FCU-003 HEATC FANNODE,COIL:HEATING:DX:SINGLESPEED,FCU-003 HEATC,Outlet,1
 Non-Parent Node Connection,HEATSYS1 PUMP-HEATSYS1 BOILERNODE,BOILER:HOTWATER,HEATSYS1 BOILER,Inlet,1
 Non-Parent Node Connection,HEATSYS1 SUPPLY EQUIPMENT OUTLET NODE,BOILER:HOTWATER,HEATSYS1 BOILER,Outlet,1
 Non-Parent Node Connection,COOLSYS1 PUMP-COOLSYS1 CHILLER1NODE,DISTRICTCOOLING,DISTRICT COOLING,Inlet,1
 Non-Parent Node Connection,COOLSYS1 SUPPLY EQUIPMENT OUTLET NODE 1,DISTRICTCOOLING,DISTRICT COOLING,Outlet,1
 Non-Parent Node Connection,HEATSYS1 SUPPLY INLET NODE,PUMP:VARIABLESPEED,HEATSYS1 PUMP,Inlet,1
 Non-Parent Node Connection,HEATSYS1 PUMP-HEATSYS1 BOILERNODEVIACONNECTOR,PUMP:VARIABLESPEED,HEATSYS1 PUMP,Outlet,1
 Non-Parent Node Connection,COOLSYS1 DEMAND INLET NODE,PUMP:VARIABLESPEED,COOLSYS1 PUMP SECONDARY,Inlet,1
 Non-Parent Node Connection,COOLSYS1 PUMP SECONDARY-COOLSYS1 DEMAND MIXER,PUMP:VARIABLESPEED,COOLSYS1 PUMP SECONDARY,Outlet,1
 Non-Parent Node Connection,COOLSYS1 CHILLER1 PUMP INLET NODE,PUMP:VARIABLESPEED,COOLSYS1 CHILLER1 PUMP,Inlet,1
 Non-Parent Node Connection,COOLSYS1 PUMP-COOLSYS1 CHILLER1NODE,PUMP:VARIABLESPEED,COOLSYS1 CHILLER1 PUMP,Outlet,1
! ===============================================================
! <#NonConnected Nodes>,<Number of NonConnected Nodes>
 #NonConnected Nodes,1
! <NonConnected Node>,<NonConnected Node Number>,<NonConnected Node Name>
 NonConnected Node,24,ZONE-VAV-121 VAV BOX OUTLET NODE
