  0
SECTION
  2
ENTITIES
999
DXF created from EnergyPlus
999
Program Version,EnergyPlus, Version 8.5.0-c87e61b44b, YMD=2020.11.05 15:28
999
Polygon Action,TRIANGULATE3DFACE
999
Color Scheme,Default
999
Text - True North
  0
TEXT
  8
1
  6
Continuous
 62
  3
 10
      -17.09600
 20
        3.00000
 30
        0.10000
 40
 .25
  1
True North
 41
 0.0
  7
MONOTXT
210
0.0
220
0.0
230
1.0
999
Text - Building Title
  0
TEXT
  8
1
  6
Continuous
 62
  3
 10
      -20.09600
 20
       -1.00000
 30
        0.10000
 40
 .4
  1
Building - CLGSetPtNormal
 41
 0.0
  7
MONOTXT
210
0.0
220
0.0
230
1.0
999
North Arrow Stem
  0
3DFACE
  8
1
 62
  3
 10
      -16.09600
 20
        3.00000
 30
        0.10000
 11
      -16.09600
 21
        3.00000
 31
        0.00000
 12
      -16.09600
 22
        0.00000
 32
        0.00000
 13
      -16.09600
 23
        0.00000
 33
        0.10000
999
North Arrow Head 1
  0
3DFACE
  8
1
 62
  3
 10
      -16.09600
 20
        3.00000
 30
        0.10000
 11
      -16.09600
 21
        3.00000
 31
        0.00000
 12
      -16.59600
 22
        2.13397
 32
        0.00000
 13
      -16.59600
 23
        2.13397
 33
        0.10000
999
North Arrow Head 2
  0
3DFACE
  8
1
 62
  3
 10
      -16.09600
 20
        3.00000
 30
        0.10000
 11
      -16.09600
 21
        3.00000
 31
        0.00000
 12
      -15.59600
 22
        2.13397
 32
        0.00000
 13
      -15.59600
 23
        2.13397
 33
        0.10000
999
North Arrow Side 1
  0
3DFACE
  8
1
 62
  3
 10
      -16.59600
 20
        4.50000
 30
        0.10000
 11
      -16.59600
 21
        4.50000
 31
        0.00000
 12
      -16.59600
 22
        3.50000
 32
        0.00000
 13
      -16.59600
 23
        3.50000
 33
        0.10000
999
North Arrow Side 2
  0
3DFACE
  8
1
 62
  3
 10
      -16.59600
 20
        4.50000
 30
        0.10000
 11
      -16.59600
 21
        4.50000
 31
        0.00000
 12
      -15.59600
 22
        3.50000
 32
        0.00000
 13
      -15.59600
 23
        3.50000
 33
        0.10000
999
North Arrow Side 3
  0
3DFACE
  8
1
 62
  3
 10
      -15.59600
 20
        4.50000
 30
        0.10000
 11
      -15.59600
 21
        4.50000
 31
        0.00000
 12
      -15.59600
 22
        3.50000
 32
        0.00000
 13
      -15.59600
 23
        3.50000
 33
        0.10000
999
Zone Names
999
Zone=1:ZONE-VAV-143
999
Zone=2:ZONE-VAV-142
999
Zone=3:ZONE-HTR-001
999
Zone=4:ZONE-VAV-136
999
Zone=5:ZONE-VAV-127B
999
Zone=6:ZONE-VAV-127A
999
Zone=7:ZONE-VAV-131
999
Zone=8:ZONE-VAV-129
999
Zone=9:ZONE-VAV-150
999
Zone=10:ZONE-VAV-123A
999
Zone=11:ZONE-VAV-123B
999
Zone=12:ZONE-AHU-005
999
Zone=13:ZONE-VAV-118
999
Zone=14:ZONE-VAV-120
999
Zone=15:ZONE-VAV-119
999
Zone=16:ZONE-VAV-RESTROOM
999
Zone=17:ZONE-AHU-004
999
Zone=18:ZONE-VAV-102
999
Zone=19:ZONE-FCU-001
999
Zone=20:ZONE-AHU-002
999
Zone=21:ZONE-VAV-105
999
Zone=22:ZONE-FCU-003
999
Zone=23:ZONE-VAV-112
999
Zone=24:ZONE-HTR-002
999
Zone=25:ZONE-HTR-003
999
Zone=26:ZONE-VAV-104
999
Zone=27:ZONE-VAV-116
999
Zone=28:ZONE-VAV-108
999
Zone=29:ZONE-FCU-002
999
Zone=30:ZONE-HTR-004
999
Zone=31:ZONE-VAV-CORRIDOR
999
Zone=32:ZONE-VAV-133
999
Zone=33:ZONE-VAV-107
999
ZONE-VAV-143:5329F0
  0
3DFACE
  8
ZONE-VAV-143
 62
 43
 10
       -2.79400
 20
        3.14960
 30
        3.65760
 11
       -2.79400
 21
        3.14960
 31
        0.00000
 12
       -6.09600
 22
        3.14960
 32
        0.00000
 13
       -6.09600
 23
        3.14960
 33
        3.65760
999
ZONE-VAV-143:892F39
  0
3DFACE
  8
ZONE-VAV-143
 62
 43
 10
       -6.09600
 20
        0.00000
 30
        3.65760
 11
       -6.09600
 21
        0.00000
 31
        0.00000
 12
       -2.79400
 22
        0.00000
 32
        0.00000
 13
       -2.79400
 23
        0.00000
 33
        3.65760
999
ZONE-VAV-143:7D8686
  0
3DFACE
  8
ZONE-VAV-143
 62
143
 10
       -5.79120
 20
        0.00000
 30
        2.74320
 11
       -5.79120
 21
        0.00000
 31
        0.30480
 12
       -4.57200
 22
        0.00000
 32
        0.30480
 13
       -4.57200
 23
        0.00000
 33
        2.74320
999
ZONE-VAV-143:306A57
  0
3DFACE
  8
ZONE-VAV-143
 62
 43
 10
       -6.09600
 20
        3.14960
 30
        3.65760
 11
       -6.09600
 21
        3.14960
 31
        0.00000
 12
       -6.09600
 22
        0.00000
 32
        0.00000
 13
       -6.09600
 23
        0.00000
 33
        3.65760
999
ZONE-VAV-143:AB6E80
  0
3DFACE
  8
ZONE-VAV-143
 62
143
 10
       -6.09600
 20
        1.52400
 30
        2.74320
 11
       -6.09600
 21
        1.52400
 31
        0.30480
 12
       -6.09600
 22
        0.30480
 32
        0.30480
 13
       -6.09600
 23
        0.30480
 33
        2.74320
999
ZONE-VAV-143:85934B
  0
3DFACE
  8
ZONE-VAV-143
 62
 43
 10
       -2.79400
 20
        0.00000
 30
        3.65760
 11
       -2.79400
 21
        0.00000
 31
        0.00000
 12
       -2.79400
 22
        3.14960
 32
        0.00000
 13
       -2.79400
 23
        3.14960
 33
        3.65760
999
ZONE-VAV-143:859248
  0
3DFACE
  8
ZONE-VAV-143
 62
  8
 10
       -2.79400
 20
        3.14960
 30
        0.00000
 11
       -2.79400
 21
        0.00000
 31
        0.00000
 12
       -6.09600
 22
        0.00000
 32
        0.00000
 13
       -6.09600
 23
        3.14960
 33
        0.00000
999
ZONE-VAV-143:E3B375
  0
3DFACE
  8
ZONE-VAV-143
 62
 15
 10
       -6.09600
 20
        3.14960
 30
        3.65760
 11
       -6.09600
 21
        0.00000
 31
        3.65760
 12
       -2.79400
 22
        0.00000
 32
        3.65760
 13
       -2.79400
 23
        3.14960
 33
        3.65760
999
ZONE-VAV-142:49D1A0
  0
3DFACE
  8
ZONE-VAV-142
 62
 43
 10
       -2.79400
 20
       23.13940
 30
        3.65760
 11
       -2.79400
 21
       23.13940
 31
        0.00000
 12
       -6.09600
 22
       23.13940
 32
        0.00000
 13
       -6.09600
 23
       23.13940
 33
        3.65760
999
ZONE-VAV-142:F4C73D
  0
3DFACE
  8
ZONE-VAV-142
 62
 43
 10
       -6.09600
 20
       23.13940
 30
        3.65760
 11
       -6.09600
 21
       23.13940
 31
        0.00000
 12
       -6.09600
 22
       13.20800
 32
        0.00000
 13
       -6.09600
 23
       13.20800
 33
        3.65760
999
ZONE-VAV-142:E29229
  0
3DFACE
  8
ZONE-VAV-142
 62
143
 10
       -6.09600
 20
       22.83460
 30
        2.74320
 11
       -6.09600
 21
       22.83460
 31
        1.21920
 12
       -6.09600
 22
       13.51280
 32
        1.21920
 13
       -6.09600
 23
       13.51280
 33
        2.74320
999
ZONE-VAV-142:D61EB3
  0
3DFACE
  8
ZONE-VAV-142
 62
 43
 10
       -2.79400
 20
       13.20800
 30
        3.65760
 11
       -2.79400
 21
       13.20800
 31
        0.00000
 12
       -2.79400
 22
       23.13940
 32
        0.00000
 13
       -2.79400
 23
       23.13940
 33
        3.65760
999
ZONE-VAV-142:4934A1
  0
3DFACE
  8
ZONE-VAV-142
 62
 43
 10
       -6.09600
 20
       13.20800
 30
        3.65760
 11
       -6.09600
 21
       13.20800
 31
        0.00000
 12
       -2.79400
 22
       13.20800
 32
        0.00000
 13
       -2.79400
 23
       13.20800
 33
        3.65760
999
ZONE-VAV-142:D9F61B
  0
3DFACE
  8
ZONE-VAV-142
 62
 43
 10
       -6.09600
 20
        3.14960
 30
        3.65760
 11
       -6.09600
 21
        3.14960
 31
        0.00000
 12
       -2.79400
 22
        3.14960
 32
        0.00000
 13
       -2.79400
 23
        3.14960
 33
        3.65760
999
ZONE-VAV-142:330246
  0
3DFACE
  8
ZONE-VAV-142
 62
 43
 10
       -2.79400
 20
        3.14960
 30
        3.65760
 11
       -2.79400
 21
        3.14960
 31
        0.00000
 12
       -2.79400
 22
        9.55040
 32
        0.00000
 13
       -2.79400
 23
        9.55040
 33
        3.65760
999
ZONE-VAV-142:684101
  0
3DFACE
  8
ZONE-VAV-142
 62
 43
 10
       -6.09600
 20
        9.55040
 30
        3.65760
 11
       -6.09600
 21
        9.55040
 31
        0.00000
 12
       -6.09600
 22
        3.14960
 32
        0.00000
 13
       -6.09600
 23
        3.14960
 33
        3.65760
999
ZONE-VAV-142:C906BE
  0
3DFACE
  8
ZONE-VAV-142
 62
143
 10
       -6.09600
 20
        9.24560
 30
        2.74320
 11
       -6.09600
 21
        9.24560
 31
        1.21920
 12
       -6.09600
 22
        3.45440
 32
        1.21920
 13
       -6.09600
 23
        3.45440
 33
        2.74320
999
ZONE-VAV-142:B95318
  0
3DFACE
  8
ZONE-VAV-142
 62
 43
 10
       -2.79400
 20
        9.55040
 30
        3.65760
 11
       -2.79400
 21
        9.55040
 31
        0.00000
 12
       -6.09600
 22
        9.55040
 32
        0.00000
 13
       -6.09600
 23
        9.55040
 33
        3.65760
999
ZONE-VAV-142:1EA868
  0
3DFACE
  8
ZONE-VAV-142
 62
  8
 10
       -2.79400
 20
        9.55040
 30
        0.00000
 11
       -2.79400
 21
        3.14960
 31
        0.00000
 12
       -6.09600
 22
        3.14960
 32
        0.00000
 13
       -6.09600
 23
        9.55040
 33
        0.00000
999
ZONE-VAV-142:7A29A9
  0
3DFACE
  8
ZONE-VAV-142
 62
  8
 10
       -2.79400
 20
       23.13940
 30
        0.00000
 11
       -2.79400
 21
       13.20800
 31
        0.00000
 12
       -6.09600
 22
       13.20800
 32
        0.00000
 13
       -6.09600
 23
       23.13940
 33
        0.00000
999
ZONE-VAV-142:E445B3
  0
3DFACE
  8
ZONE-VAV-142
 62
 15
 10
       -6.09600
 20
       23.13940
 30
        3.65760
 11
       -6.09600
 21
       13.20800
 31
        3.65760
 12
       -2.79400
 22
       13.20800
 32
        3.65760
 13
       -2.79400
 23
       23.13940
 33
        3.65760
999
ZONE-VAV-142:EA85FB
  0
3DFACE
  8
ZONE-VAV-142
 62
 15
 10
       -6.09600
 20
        9.55040
 30
        3.65760
 11
       -6.09600
 21
        3.14960
 31
        3.65760
 12
       -2.79400
 22
        3.14960
 32
        3.65760
 13
       -2.79400
 23
        9.55040
 33
        3.65760
999
ZONE-HTR-001:EF17CF
  0
3DFACE
  8
ZONE-HTR-001
 62
 43
 10
       -6.09600
 20
       13.20800
 30
        3.65760
 11
       -6.09600
 21
       13.20800
 31
        0.00000
 12
       -6.09600
 22
        9.55040
 32
        0.00000
 13
       -6.09600
 23
        9.55040
 33
        3.65760
999
ZONE-HTR-001:33A36A
  0
3DFACE
  8
ZONE-HTR-001
 62
143
 10
       -6.09600
 20
       12.90320
 30
        2.74320
 11
       -6.09600
 21
       12.90320
 31
        1.21920
 12
       -6.09600
 22
        9.85520
 32
        1.21920
 13
       -6.09600
 23
        9.85520
 33
        2.74320
999
ZONE-HTR-001:90D244
  0
3DFACE
  8
ZONE-HTR-001
 62
 43
 10
       -2.79400
 20
       13.20800
 30
        3.65760
 11
       -2.79400
 21
       13.20800
 31
        0.00000
 12
       -6.09600
 22
       13.20800
 32
        0.00000
 13
       -6.09600
 23
       13.20800
 33
        3.65760
999
ZONE-HTR-001:C0FEBB
  0
3DFACE
  8
ZONE-HTR-001
 62
 43
 10
       -6.09600
 20
        9.55040
 30
        3.65760
 11
       -6.09600
 21
        9.55040
 31
        0.00000
 12
       -2.79400
 22
        9.55040
 32
        0.00000
 13
       -2.79400
 23
        9.55040
 33
        3.65760
999
ZONE-HTR-001:521B7E
  0
3DFACE
  8
ZONE-HTR-001
 62
 43
 10
       -2.79400
 20
        9.55040
 30
        3.65760
 11
       -2.79400
 21
        9.55040
 31
        0.00000
 12
       -2.79400
 22
       13.20800
 32
        0.00000
 13
       -2.79400
 23
       13.20800
 33
        3.65760
999
ZONE-HTR-001:8C9FFC
  0
3DFACE
  8
ZONE-HTR-001
 62
  8
 10
       -2.79400
 20
       13.20800
 30
        0.00000
 11
       -2.79400
 21
        9.55040
 31
        0.00000
 12
       -6.09600
 22
        9.55040
 32
        0.00000
 13
       -6.09600
 23
       13.20800
 33
        0.00000
999
ZONE-HTR-001:E7AC3C
  0
3DFACE
  8
ZONE-HTR-001
 62
 15
 10
       -6.09600
 20
       13.20800
 30
        3.65760
 11
       -6.09600
 21
        9.55040
 31
        3.65760
 12
       -2.79400
 22
        9.55040
 32
        3.65760
 13
       -2.79400
 23
       13.20800
 33
        3.65760
999
ZONE-VAV-136:90C1F9
  0
3DFACE
  8
ZONE-VAV-136
 62
 43
 10
       -2.79400
 20
       26.49220
 30
        3.65760
 11
       -2.79400
 21
       26.49220
 31
        0.00000
 12
       -6.09600
 22
       26.49220
 32
        0.00000
 13
       -6.09600
 23
       26.49220
 33
        3.65760
999
ZONE-VAV-136:78FC5C
  0
3DFACE
  8
ZONE-VAV-136
 62
143
 10
       -4.57200
 20
       26.49220
 30
        2.74320
 11
       -4.57200
 21
       26.49220
 31
        0.30480
 12
       -5.79120
 22
       26.49220
 32
        0.30480
 13
       -5.79120
 23
       26.49220
 33
        2.74320
999
ZONE-VAV-136:480A1A
  0
3DFACE
  8
ZONE-VAV-136
 62
 43
 10
       -6.09600
 20
       23.13940
 30
        3.65760
 11
       -6.09600
 21
       23.13940
 31
        0.00000
 12
       -2.79400
 22
       23.13940
 32
        0.00000
 13
       -2.79400
 23
       23.13940
 33
        3.65760
999
ZONE-VAV-136:E297C6
  0
3DFACE
  8
ZONE-VAV-136
 62
 43
 10
       -2.79400
 20
       23.13940
 30
        3.65760
 11
       -2.79400
 21
       23.13940
 31
        0.00000
 12
       -2.79400
 22
       26.49220
 32
        0.00000
 13
       -2.79400
 23
       26.49220
 33
        3.65760
999
ZONE-VAV-136:733EC4
  0
3DFACE
  8
ZONE-VAV-136
 62
 43
 10
       -6.09600
 20
       26.49220
 30
        3.65760
 11
       -6.09600
 21
       26.49220
 31
        0.00000
 12
       -6.09600
 22
       23.13940
 32
        0.00000
 13
       -6.09600
 23
       23.13940
 33
        3.65760
999
ZONE-VAV-136:BC6D57
  0
3DFACE
  8
ZONE-VAV-136
 62
143
 10
       -6.09600
 20
       26.18740
 30
        2.74320
 11
       -6.09600
 21
       26.18740
 31
        0.30480
 12
       -6.09600
 22
       24.96820
 32
        0.30480
 13
       -6.09600
 23
       24.96820
 33
        2.74320
999
ZONE-VAV-136:5A08A4
  0
3DFACE
  8
ZONE-VAV-136
 62
  8
 10
       -2.79400
 20
       26.49220
 30
        0.00000
 11
       -2.79400
 21
       23.13940
 31
        0.00000
 12
       -6.09600
 22
       23.13940
 32
        0.00000
 13
       -6.09600
 23
       26.49220
 33
        0.00000
999
ZONE-VAV-136:52716F
  0
3DFACE
  8
ZONE-VAV-136
 62
 15
 10
       -6.09600
 20
       26.49220
 30
        3.65760
 11
       -6.09600
 21
       23.13940
 31
        3.65760
 12
       -2.79400
 22
       23.13940
 32
        3.65760
 13
       -2.79400
 23
       26.49220
 33
        3.65760
999
ZONE-VAV-127B:F54B0E
  0
3DFACE
  8
ZONE-VAV-127B
 62
 43
 10
       18.13560
 20
       13.20800
 30
        3.65760
 11
       18.13560
 21
       13.20800
 31
        0.00000
 12
        2.43840
 22
       13.20800
 32
        0.00000
 13
        2.43840
 23
       13.20800
 33
        3.65760
999
ZONE-VAV-127B:E45C0B
  0
3DFACE
  8
ZONE-VAV-127B
 62
 43
 10
       -2.79400
 20
       13.20800
 30
        3.65760
 11
       -2.79400
 21
       13.20800
 31
        0.00000
 12
       -2.79400
 22
        9.55040
 32
        0.00000
 13
       -2.79400
 23
        9.55040
 33
        3.65760
999
ZONE-VAV-127B:635A3D
  0
3DFACE
  8
ZONE-VAV-127B
 62
 43
 10
       -2.79400
 20
        0.00000
 30
        3.65760
 11
       -2.79400
 21
        0.00000
 31
        0.00000
 12
       18.13560
 22
        0.00000
 32
        0.00000
 13
       18.13560
 23
        0.00000
 33
        3.65760
999
ZONE-VAV-127B:EBF00E
  0
3DFACE
  8
ZONE-VAV-127B
 62
143
 10
        1.57480
 20
        0.00000
 30
        2.74320
 11
        1.57480
 21
        0.00000
 31
        0.30480
 12
       13.76680
 22
        0.00000
 32
        0.30480
 13
       13.76680
 23
        0.00000
 33
        2.74320
999
ZONE-VAV-127B:DB2F5E
  0
3DFACE
  8
ZONE-VAV-127B
 62
 43
 10
       18.13560
 20
        0.00000
 30
        3.65760
 11
       18.13560
 21
        0.00000
 31
        0.00000
 12
       18.13560
 22
        9.55040
 32
        0.00000
 13
       18.13560
 23
        9.55040
 33
        3.65760
999
ZONE-VAV-127B:E96B38
  0
3DFACE
  8
ZONE-VAV-127B
 62
 43
 10
       -2.79400
 20
        9.55040
 30
        3.65760
 11
       -2.79400
 21
        9.55040
 31
        0.00000
 12
       -2.79400
 22
        3.14960
 32
        0.00000
 13
       -2.79400
 23
        3.14960
 33
        3.65760
999
ZONE-VAV-127B:9D8E82
  0
3DFACE
  8
ZONE-VAV-127B
 62
 43
 10
       -2.79400
 20
        3.14960
 30
        3.65760
 11
       -2.79400
 21
        3.14960
 31
        0.00000
 12
       -2.79400
 22
        0.00000
 32
        0.00000
 13
       -2.79400
 23
        0.00000
 33
        3.65760
999
ZONE-VAV-127B:4F5918
  0
3DFACE
  8
ZONE-VAV-127B
 62
 43
 10
        2.43840
 20
       13.20800
 30
        3.65760
 11
        2.43840
 21
       13.20800
 31
        0.00000
 12
       -2.79400
 22
       13.20800
 32
        0.00000
 13
       -2.79400
 23
       13.20800
 33
        3.65760
999
ZONE-VAV-127B:6650B6
  0
3DFACE
  8
ZONE-VAV-127B
 62
 43
 10
       18.13560
 20
        9.55040
 30
        3.65760
 11
       18.13560
 21
        9.55040
 31
        0.00000
 12
       18.13560
 22
       13.20800
 32
        0.00000
 13
       18.13560
 23
       13.20800
 33
        3.65760
999
ZONE-VAV-127B:274C9F
  0
3DFACE
  8
ZONE-VAV-127B
 62
  8
 10
       18.13560
 20
       13.20800
 30
        0.00000
 11
       18.13560
 21
        0.00000
 31
        0.00000
 12
       -2.79400
 22
        0.00000
 32
        0.00000
 13
       -2.79400
 23
       13.20800
 33
        0.00000
999
ZONE-VAV-127B:B10E1D
  0
3DFACE
  8
ZONE-VAV-127B
 62
 15
 10
       -2.79400
 20
       13.20800
 30
        3.65760
 11
       -2.79400
 21
        0.00000
 31
        3.65760
 12
       18.13560
 22
        0.00000
 32
        3.65760
 13
       18.13560
 23
       13.20800
 33
        3.65760
999
ZONE-VAV-127A:CD220A
  0
3DFACE
  8
ZONE-VAV-127A
 62
 43
 10
       -2.79400
 20
       13.20800
 30
        3.65760
 11
       -2.79400
 21
       13.20800
 31
        0.00000
 12
        2.43840
 22
       13.20800
 32
        0.00000
 13
        2.43840
 23
       13.20800
 33
        3.65760
999
ZONE-VAV-127A:2E0515
  0
3DFACE
  8
ZONE-VAV-127A
 62
 43
 10
       18.13560
 20
       16.48460
 30
        3.65760
 11
       18.13560
 21
       16.48460
 31
        0.00000
 12
       18.13560
 22
       23.13940
 32
        0.00000
 13
       18.13560
 23
       23.13940
 33
        3.65760
999
ZONE-VAV-127A:82DF02
  0
3DFACE
  8
ZONE-VAV-127A
 62
 43
 10
       -2.79400
 20
       26.49220
 30
        3.65760
 11
       -2.79400
 21
       26.49220
 31
        0.00000
 12
       -2.79400
 22
       23.13940
 32
        0.00000
 13
       -2.79400
 23
       23.13940
 33
        3.65760
999
ZONE-VAV-127A:AB2C94
  0
3DFACE
  8
ZONE-VAV-127A
 62
 43
 10
        2.43840
 20
       16.48460
 30
        3.65760
 11
        2.43840
 21
       16.48460
 31
        0.00000
 12
       18.13560
 22
       16.48460
 32
        0.00000
 13
       18.13560
 23
       16.48460
 33
        3.65760
999
ZONE-VAV-127A:9981B3
  0
3DFACE
  8
ZONE-VAV-127A
 62
 43
 10
       18.13560
 20
       26.49220
 30
        3.65760
 11
       18.13560
 21
       26.49220
 31
        0.00000
 12
       -2.79400
 22
       26.49220
 32
        0.00000
 13
       -2.79400
 23
       26.49220
 33
        3.65760
999
ZONE-VAV-127A:86812D
  0
3DFACE
  8
ZONE-VAV-127A
 62
143
 10
       13.76680
 20
       26.49220
 30
        2.74320
 11
       13.76680
 21
       26.49220
 31
        0.30480
 12
        1.57480
 22
       26.49220
 32
        0.30480
 13
        1.57480
 23
       26.49220
 33
        2.74320
999
ZONE-VAV-127A:5B24F3
  0
3DFACE
  8
ZONE-VAV-127A
 62
 43
 10
        2.43840
 20
       13.20800
 30
        3.65760
 11
        2.43840
 21
       13.20800
 31
        0.00000
 12
        2.43840
 22
       16.48460
 32
        0.00000
 13
        2.43840
 23
       16.48460
 33
        3.65760
999
ZONE-VAV-127A:65C33A
  0
3DFACE
  8
ZONE-VAV-127A
 62
 43
 10
       18.13560
 20
       23.13940
 30
        3.65760
 11
       18.13560
 21
       23.13940
 31
        0.00000
 12
       18.13560
 22
       26.49220
 32
        0.00000
 13
       18.13560
 23
       26.49220
 33
        3.65760
999
ZONE-VAV-127A:28D4F4
  0
3DFACE
  8
ZONE-VAV-127A
 62
 43
 10
       -2.79400
 20
       23.13940
 30
        3.65760
 11
       -2.79400
 21
       23.13940
 31
        0.00000
 12
       -2.79400
 22
       13.20800
 32
        0.00000
 13
       -2.79400
 23
       13.20800
 33
        3.65760
999
ZONE-VAV-127A:881D78
  0
3DFACE
  8
ZONE-VAV-127A
 62
  8
 10
        2.43840
 20
       16.48460
 30
        0.00000
 11
        2.43840
 21
       13.20800
 31
        0.00000
 12
       -2.79400
 22
       13.20800
 32
        0.00000
 13
       -2.79400
 23
       16.48460
 33
        0.00000
999
ZONE-VAV-127A:16A946
  0
3DFACE
  8
ZONE-VAV-127A
 62
  8
 10
       18.13560
 20
       26.49220
 30
        0.00000
 11
       18.13560
 21
       16.48460
 31
        0.00000
 12
       -2.79400
 22
       16.48460
 32
        0.00000
 13
       -2.79400
 23
       26.49220
 33
        0.00000
999
ZONE-VAV-127A:15DF76
  0
3DFACE
  8
ZONE-VAV-127A
 62
 15
 10
       18.13560
 20
       16.48460
 30
        3.65760
 11
       18.13560
 21
       26.49220
 31
        3.65760
 12
       -2.79400
 22
       26.49220
 32
        3.65760
 13
       -2.79400
 23
       16.48460
 33
        3.65760
999
ZONE-VAV-127A:86AD10
  0
3DFACE
  8
ZONE-VAV-127A
 62
 15
 10
        2.43840
 20
       13.20800
 30
        3.65760
 11
        2.43840
 21
       16.48460
 31
        3.65760
 12
       -2.79400
 22
       16.48460
 32
        3.65760
 13
       -2.79400
 23
       13.20800
 33
        3.65760
999
ZONE-VAV-131:C98507
  0
3DFACE
  8
ZONE-VAV-131
 62
 43
 10
       21.99640
 20
       26.49220
 30
        3.65760
 11
       21.99640
 21
       26.49220
 31
        0.00000
 12
       18.13560
 22
       26.49220
 32
        0.00000
 13
       18.13560
 23
       26.49220
 33
        3.65760
999
ZONE-VAV-131:BC07BD
  0
3DFACE
  8
ZONE-VAV-131
 62
 43
 10
       18.13560
 20
       26.49220
 30
        3.65760
 11
       18.13560
 21
       26.49220
 31
        0.00000
 12
       18.13560
 22
       23.13940
 32
        0.00000
 13
       18.13560
 23
       23.13940
 33
        3.65760
999
ZONE-VAV-131:9C8D83
  0
3DFACE
  8
ZONE-VAV-131
 62
 43
 10
       21.99640
 20
       23.13940
 30
        3.65760
 11
       21.99640
 21
       23.13940
 31
        0.00000
 12
       21.99640
 22
       26.49220
 32
        0.00000
 13
       21.99640
 23
       26.49220
 33
        3.65760
999
ZONE-VAV-131:49EBF1
  0
3DFACE
  8
ZONE-VAV-131
 62
 43
 10
       18.13560
 20
       23.13940
 30
        3.65760
 11
       18.13560
 21
       23.13940
 31
        0.00000
 12
       21.99640
 22
       23.13940
 32
        0.00000
 13
       21.99640
 23
       23.13940
 33
        3.65760
999
ZONE-VAV-131:3ADC24
  0
3DFACE
  8
ZONE-VAV-131
 62
  8
 10
       21.99640
 20
       26.49220
 30
        0.00000
 11
       21.99640
 21
       23.13940
 31
        0.00000
 12
       18.13560
 22
       23.13940
 32
        0.00000
 13
       18.13560
 23
       26.49220
 33
        0.00000
999
ZONE-VAV-131:176AFD
  0
3DFACE
  8
ZONE-VAV-131
 62
 15
 10
       18.13560
 20
       26.49220
 30
        3.65760
 11
       18.13560
 21
       23.13940
 31
        3.65760
 12
       21.99640
 22
       23.13940
 32
        3.65760
 13
       21.99640
 23
       26.49220
 33
        3.65760
999
ZONE-VAV-129:E35167
  0
3DFACE
  8
ZONE-VAV-129
 62
 43
 10
       18.13560
 20
       16.48460
 30
        3.65760
 11
       18.13560
 21
       16.48460
 31
        0.00000
 12
       18.13560
 22
       13.20800
 32
        0.00000
 13
       18.13560
 23
       13.20800
 33
        3.65760
999
ZONE-VAV-129:EFD467
  0
3DFACE
  8
ZONE-VAV-129
 62
 43
 10
       18.13560
 20
       13.20800
 30
        3.65760
 11
       18.13560
 21
       13.20800
 31
        0.00000
 12
       21.99640
 22
       13.20800
 32
        0.00000
 13
       21.99640
 23
       13.20800
 33
        3.65760
999
ZONE-VAV-129:AEF73D
  0
3DFACE
  8
ZONE-VAV-129
 62
 43
 10
       21.99640
 20
       13.20800
 30
        3.65760
 11
       21.99640
 21
       13.20800
 31
        0.00000
 12
       21.99640
 22
       16.48460
 32
        0.00000
 13
       21.99640
 23
       16.48460
 33
        3.65760
999
ZONE-VAV-129:E35167 1
  0
3DFACE
  8
ZONE-VAV-129
 62
 43
 10
       18.13560
 20
       23.13940
 30
        3.65760
 11
       18.13560
 21
       23.13940
 31
        0.00000
 12
       18.13560
 22
       16.48460
 32
        0.00000
 13
       18.13560
 23
       16.48460
 33
        3.65760
999
ZONE-VAV-129:9C3415
  0
3DFACE
  8
ZONE-VAV-129
 62
 43
 10
       21.99640
 20
       23.13940
 30
        3.65760
 11
       21.99640
 21
       23.13940
 31
        0.00000
 12
       18.13560
 22
       23.13940
 32
        0.00000
 13
       18.13560
 23
       23.13940
 33
        3.65760
999
ZONE-VAV-129:D5B3E4
  0
3DFACE
  8
ZONE-VAV-129
 62
 43
 10
       21.99640
 20
       16.48460
 30
        3.65760
 11
       21.99640
 21
       16.48460
 31
        0.00000
 12
       21.99640
 22
       23.13940
 32
        0.00000
 13
       21.99640
 23
       23.13940
 33
        3.65760
999
ZONE-VAV-129:C41D2A
  0
3DFACE
  8
ZONE-VAV-129
 62
  8
 10
       21.99640
 20
       23.13940
 30
        0.00000
 11
       21.99640
 21
       13.20800
 31
        0.00000
 12
       18.13560
 22
       13.20800
 32
        0.00000
 13
       18.13560
 23
       23.13940
 33
        0.00000
999
ZONE-VAV-129:85F9F8
  0
3DFACE
  8
ZONE-VAV-129
 62
 15
 10
       18.13560
 20
       23.13940
 30
        3.65760
 11
       18.13560
 21
       13.20800
 31
        3.65760
 12
       21.99640
 22
       13.20800
 32
        3.65760
 13
       21.99640
 23
       23.13940
 33
        3.65760
999
ZONE-VAV-150:E216E1
  0
3DFACE
  8
ZONE-VAV-150
 62
 43
 10
       21.99640
 20
        0.00000
 30
        3.65760
 11
       21.99640
 21
        0.00000
 31
        0.00000
 12
       21.99640
 22
        3.14960
 32
        0.00000
 13
       21.99640
 23
        3.14960
 33
        3.65760
999
ZONE-VAV-150:SUB SURFACE 1
  0
3DFACE
  8
ZONE-VAV-150
 62
143
 10
       21.99640
 20
        0.30480
 30
        2.74320
 11
       21.99640
 21
        0.30480
 31
        0.30480
 12
       21.99640
 22
        1.52400
 32
        0.30480
 13
       21.99640
 23
        1.52400
 33
        2.74320
999
ZONE-VAV-150:60A522
  0
3DFACE
  8
ZONE-VAV-150
 62
 43
 10
       20.06600
 20
        3.14960
 30
        3.65760
 11
       20.06600
 21
        3.14960
 31
        0.00000
 12
       20.06600
 22
        9.55040
 32
        0.00000
 13
       20.06600
 23
        9.55040
 33
        3.65760
999
ZONE-VAV-150:DB36E1
  0
3DFACE
  8
ZONE-VAV-150
 62
 43
 10
       18.13560
 20
        0.00000
 30
        3.65760
 11
       18.13560
 21
        0.00000
 31
        0.00000
 12
       21.99640
 22
        0.00000
 32
        0.00000
 13
       21.99640
 23
        0.00000
 33
        3.65760
999
ZONE-VAV-150:SUB SURFACE 2
  0
3DFACE
  8
ZONE-VAV-150
 62
143
 10
       20.47240
 20
        0.00000
 30
        2.74320
 11
       20.47240
 21
        0.00000
 31
        0.30480
 12
       21.69160
 22
        0.00000
 32
        0.30480
 13
       21.69160
 23
        0.00000
 33
        2.74320
999
ZONE-VAV-150:9637F6
  0
3DFACE
  8
ZONE-VAV-150
 62
 43
 10
       18.13560
 20
        9.55040
 30
        3.65760
 11
       18.13560
 21
        9.55040
 31
        0.00000
 12
       18.13560
 22
        0.00000
 32
        0.00000
 13
       18.13560
 23
        0.00000
 33
        3.65760
999
ZONE-VAV-150:E68E6E
  0
3DFACE
  8
ZONE-VAV-150
 62
 43
 10
       21.99640
 20
        3.14960
 30
        3.65760
 11
       21.99640
 21
        3.14960
 31
        0.00000
 12
       20.06600
 22
        3.14960
 32
        0.00000
 13
       20.06600
 23
        3.14960
 33
        3.65760
999
ZONE-VAV-150:E65CC2
  0
3DFACE
  8
ZONE-VAV-150
 62
 43
 10
       20.06600
 20
        9.55040
 30
        3.65760
 11
       20.06600
 21
        9.55040
 31
        0.00000
 12
       18.13560
 22
        9.55040
 32
        0.00000
 13
       18.13560
 23
        9.55040
 33
        3.65760
999
ZONE-VAV-150:7C2DB1
  0
3DFACE
  8
ZONE-VAV-150
 62
  8
 10
       20.06600
 20
        9.55040
 30
        0.00000
 11
       20.06600
 21
        3.14960
 31
        0.00000
 12
       18.13560
 22
        3.14960
 32
        0.00000
 13
       18.13560
 23
        9.55040
 33
        0.00000
999
ZONE-VAV-150:6B588F
  0
3DFACE
  8
ZONE-VAV-150
 62
  8
 10
       21.99640
 20
        3.14960
 30
        0.00000
 11
       21.99640
 21
        0.00000
 31
        0.00000
 12
       18.13560
 22
        0.00000
 32
        0.00000
 13
       18.13560
 23
        3.14960
 33
        0.00000
999
ZONE-VAV-150:512EA5
  0
3DFACE
  8
ZONE-VAV-150
 62
 15
 10
       18.13560
 20
        3.14960
 30
        3.65760
 11
       18.13560
 21
        0.00000
 31
        3.65760
 12
       21.99640
 22
        0.00000
 32
        3.65760
 13
       21.99640
 23
        3.14960
 33
        3.65760
999
ZONE-VAV-150:666EEF
  0
3DFACE
  8
ZONE-VAV-150
 62
 15
 10
       18.13560
 20
        9.55040
 30
        3.65760
 11
       18.13560
 21
        3.14960
 31
        3.65760
 12
       20.06600
 22
        3.14960
 32
        3.65760
 13
       20.06600
 23
        9.55040
 33
        3.65760
999
ZONE-VAV-123A:E43ECA
  0
3DFACE
  8
ZONE-VAV-123A
 62
 43
 10
       26.87320
 20
       29.84500
 30
        3.65760
 11
       26.87320
 21
       29.84500
 31
        0.00000
 12
       21.99640
 22
       29.84500
 32
        0.00000
 13
       21.99640
 23
       29.84500
 33
        3.65760
999
ZONE-VAV-123A:D9B477
  0
3DFACE
  8
ZONE-VAV-123A
 62
 43
 10
       21.99640
 20
       29.84500
 30
        3.65760
 11
       21.99640
 21
       29.84500
 31
        0.00000
 12
       21.99640
 22
       26.49220
 32
        0.00000
 13
       21.99640
 23
       26.49220
 33
        3.65760
999
ZONE-VAV-123A:FD8B18
  0
3DFACE
  8
ZONE-VAV-123A
 62
 43
 10
       26.87320
 20
       16.48460
 30
        3.65760
 11
       26.87320
 21
       16.48460
 31
        0.00000
 12
       26.87320
 22
       29.84500
 32
        0.00000
 13
       26.87320
 23
       29.84500
 33
        3.65760
999
ZONE-VAV-123A:C8CBF8
  0
3DFACE
  8
ZONE-VAV-123A
 62
 43
 10
       21.99640
 20
       16.48460
 30
        3.65760
 11
       21.99640
 21
       16.48460
 31
        0.00000
 12
       26.87320
 22
       16.48460
 32
        0.00000
 13
       26.87320
 23
       16.48460
 33
        3.65760
999
ZONE-VAV-123A:3C0B1E
  0
3DFACE
  8
ZONE-VAV-123A
 62
 43
 10
       21.99640
 20
       26.49220
 30
        3.65760
 11
       21.99640
 21
       26.49220
 31
        0.00000
 12
       21.99640
 22
       23.13940
 32
        0.00000
 13
       21.99640
 23
       23.13940
 33
        3.65760
999
ZONE-VAV-123A:D85EFB
  0
3DFACE
  8
ZONE-VAV-123A
 62
 43
 10
       21.99640
 20
       23.13940
 30
        3.65760
 11
       21.99640
 21
       23.13940
 31
        0.00000
 12
       21.99640
 22
       16.48460
 32
        0.00000
 13
       21.99640
 23
       16.48460
 33
        3.65760
999
ZONE-VAV-123A:E9F1CE
  0
3DFACE
  8
ZONE-VAV-123A
 62
  8
 10
       26.87320
 20
       29.84500
 30
        0.00000
 11
       26.87320
 21
       16.48460
 31
        0.00000
 12
       21.99640
 22
       16.48460
 32
        0.00000
 13
       21.99640
 23
       29.84500
 33
        0.00000
999
ZONE-VAV-123A:3E6305
  0
3DFACE
  8
ZONE-VAV-123A
 62
 15
 10
       21.99640
 20
       29.84500
 30
        3.65760
 11
       21.99640
 21
       16.48460
 31
        3.65760
 12
       26.87320
 22
       16.48460
 32
        3.65760
 13
       26.87320
 23
       29.84500
 33
        3.65760
999
ZONE-VAV-123B:9F2C07
  0
3DFACE
  8
ZONE-VAV-123B
 62
 43
 10
       32.00400
 20
       29.84500
 30
        3.65760
 11
       32.00400
 21
       29.84500
 31
        0.00000
 12
       26.87320
 22
       29.84500
 32
        0.00000
 13
       26.87320
 23
       29.84500
 33
        3.65760
999
ZONE-VAV-123B:94ED48
  0
3DFACE
  8
ZONE-VAV-123B
 62
 43
 10
       26.87320
 20
       29.84500
 30
        3.65760
 11
       26.87320
 21
       29.84500
 31
        0.00000
 12
       26.87320
 22
       16.48460
 32
        0.00000
 13
       26.87320
 23
       16.48460
 33
        3.65760
999
ZONE-VAV-123B:966EE3
  0
3DFACE
  8
ZONE-VAV-123B
 62
 43
 10
       32.00400
 20
       16.48460
 30
        3.65760
 11
       32.00400
 21
       16.48460
 31
        0.00000
 12
       32.00400
 22
       26.49220
 32
        0.00000
 13
       32.00400
 23
       26.49220
 33
        3.65760
999
ZONE-VAV-123B:F37653
  0
3DFACE
  8
ZONE-VAV-123B
 62
 43
 10
       26.87320
 20
       16.48460
 30
        3.65760
 11
       26.87320
 21
       16.48460
 31
        0.00000
 12
       32.00400
 22
       16.48460
 32
        0.00000
 13
       32.00400
 23
       16.48460
 33
        3.65760
999
ZONE-VAV-123B:71E54C
  0
3DFACE
  8
ZONE-VAV-123B
 62
 43
 10
       32.00400
 20
       26.49220
 30
        3.65760
 11
       32.00400
 21
       26.49220
 31
        0.00000
 12
       32.00400
 22
       29.84500
 32
        0.00000
 13
       32.00400
 23
       29.84500
 33
        3.65760
999
ZONE-VAV-123B:985883
  0
3DFACE
  8
ZONE-VAV-123B
 62
  8
 10
       32.00400
 20
       29.84500
 30
        0.00000
 11
       32.00400
 21
       16.48460
 31
        0.00000
 12
       26.87320
 22
       16.48460
 32
        0.00000
 13
       26.87320
 23
       29.84500
 33
        0.00000
999
ZONE-VAV-123B:7C7576
  0
3DFACE
  8
ZONE-VAV-123B
 62
 15
 10
       26.87320
 20
       29.84500
 30
        3.65760
 11
       26.87320
 21
       16.48460
 31
        3.65760
 12
       32.00400
 22
       16.48460
 32
        3.65760
 13
       32.00400
 23
       29.84500
 33
        3.65760
999
ZONE-AHU-005:DBA231
  0
3DFACE
  8
ZONE-AHU-005
 62
 43
 10
       43.38320
 20
       33.19780
 30
        3.65760
 11
       43.38320
 21
       33.19780
 31
        0.00000
 12
       43.38320
 22
       36.62680
 32
        0.00000
 13
       43.38320
 23
       36.62680
 33
        3.65760
999
ZONE-AHU-005:572689
  0
3DFACE
  8
ZONE-AHU-005
 62
 43
 10
       40.25900
 20
       33.19780
 30
        3.65760
 11
       40.25900
 21
       33.19780
 31
        0.00000
 12
       43.38320
 22
       33.19780
 32
        0.00000
 13
       43.38320
 23
       33.19780
 33
        3.65760
999
ZONE-AHU-005:B76153
  0
3DFACE
  8
ZONE-AHU-005
 62
 43
 10
       40.25900
 20
       29.84500
 30
        3.65760
 11
       40.25900
 21
       29.84500
 31
        0.00000
 12
       40.25900
 22
       33.19780
 32
        0.00000
 13
       40.25900
 23
       33.19780
 33
        3.65760
999
ZONE-AHU-005:7F8356
  0
3DFACE
  8
ZONE-AHU-005
 62
 43
 10
       26.87320
 20
       36.62680
 30
        3.65760
 11
       26.87320
 21
       36.62680
 31
        0.00000
 12
       26.87320
 22
       29.84500
 32
        0.00000
 13
       26.87320
 23
       29.84500
 33
        3.65760
999
ZONE-AHU-005:7DD26E
  0
3DFACE
  8
ZONE-AHU-005
 62
 43
 10
       38.25240
 20
       29.84500
 30
        3.65760
 11
       38.25240
 21
       29.84500
 31
        0.00000
 12
       40.25900
 22
       29.84500
 32
        0.00000
 13
       40.25900
 23
       29.84500
 33
        3.65760
999
ZONE-AHU-005:F1CECA
  0
3DFACE
  8
ZONE-AHU-005
 62
 43
 10
       43.38320
 20
       36.62680
 30
        3.65760
 11
       43.38320
 21
       36.62680
 31
        0.00000
 12
       26.87320
 22
       36.62680
 32
        0.00000
 13
       26.87320
 23
       36.62680
 33
        3.65760
999
ZONE-AHU-005:810689
  0
3DFACE
  8
ZONE-AHU-005
 62
 43
 10
       35.12820
 20
       29.84500
 30
        3.65760
 11
       35.12820
 21
       29.84500
 31
        0.00000
 12
       38.25240
 22
       29.84500
 32
        0.00000
 13
       38.25240
 23
       29.84500
 33
        3.65760
999
ZONE-AHU-005:E57E90
  0
3DFACE
  8
ZONE-AHU-005
 62
 43
 10
       32.00400
 20
       29.84500
 30
        3.65760
 11
       32.00400
 21
       29.84500
 31
        0.00000
 12
       35.12820
 22
       29.84500
 32
        0.00000
 13
       35.12820
 23
       29.84500
 33
        3.65760
999
ZONE-AHU-005:AC467B
  0
3DFACE
  8
ZONE-AHU-005
 62
 43
 10
       26.87320
 20
       29.84500
 30
        3.65760
 11
       26.87320
 21
       29.84500
 31
        0.00000
 12
       32.00400
 22
       29.84500
 32
        0.00000
 13
       32.00400
 23
       29.84500
 33
        3.65760
999
ZONE-AHU-005:C96E03
  0
3DFACE
  8
ZONE-AHU-005
 62
  8
 10
       43.38320
 20
       36.62680
 30
        0.00000
 11
       43.38320
 21
       33.19780
 31
        0.00000
 12
       40.25900
 22
       33.19780
 32
        0.00000
 13
       40.25900
 23
       36.62680
 33
        0.00000
999
ZONE-AHU-005:193048
  0
3DFACE
  8
ZONE-AHU-005
 62
  8
 10
       40.25900
 20
       36.62680
 30
        0.00000
 11
       40.25900
 21
       29.84500
 31
        0.00000
 12
       26.87320
 22
       29.84500
 32
        0.00000
 13
       26.87320
 23
       36.62680
 33
        0.00000
999
ZONE-AHU-005:484644
  0
3DFACE
  8
ZONE-AHU-005
 62
 15
 10
       26.87320
 20
       36.62680
 30
        3.65760
 11
       26.87320
 21
       29.84500
 31
        3.65760
 12
       40.25900
 22
       29.84500
 32
        3.65760
 13
       40.25900
 23
       36.62680
 33
        3.65760
999
ZONE-AHU-005:2D01E7
  0
3DFACE
  8
ZONE-AHU-005
 62
 15
 10
       40.25900
 20
       36.62680
 30
        3.65760
 11
       40.25900
 21
       33.19780
 31
        3.65760
 12
       43.38320
 22
       33.19780
 32
        3.65760
 13
       43.38320
 23
       36.62680
 33
        3.65760
999
ZONE-VAV-118:AD3EDC
  0
3DFACE
  8
ZONE-VAV-118
 62
 43
 10
       32.00400
 20
       26.49220
 30
        3.65760
 11
       32.00400
 21
       26.49220
 31
        0.00000
 12
       32.00400
 22
       16.48460
 32
        0.00000
 13
       32.00400
 23
       16.48460
 33
        3.65760
999
ZONE-VAV-118:D0799A
  0
3DFACE
  8
ZONE-VAV-118
 62
 43
 10
       38.25240
 20
       16.48460
 30
        3.65760
 11
       38.25240
 21
       16.48460
 31
        0.00000
 12
       38.25240
 22
       26.49220
 32
        0.00000
 13
       38.25240
 23
       26.49220
 33
        3.65760
999
ZONE-VAV-118:3C9AAC
  0
3DFACE
  8
ZONE-VAV-118
 62
 43
 10
       38.25240
 20
       26.49220
 30
        3.65760
 11
       38.25240
 21
       26.49220
 31
        0.00000
 12
       35.12820
 22
       26.49220
 32
        0.00000
 13
       35.12820
 23
       26.49220
 33
        3.65760
999
ZONE-VAV-118:EEFE64
  0
3DFACE
  8
ZONE-VAV-118
 62
 43
 10
       32.00400
 20
       16.48460
 30
        3.65760
 11
       32.00400
 21
       16.48460
 31
        0.00000
 12
       38.25240
 22
       16.48460
 32
        0.00000
 13
       38.25240
 23
       16.48460
 33
        3.65760
999
ZONE-VAV-118:289680
  0
3DFACE
  8
ZONE-VAV-118
 62
 43
 10
       35.12820
 20
       26.49220
 30
        3.65760
 11
       35.12820
 21
       26.49220
 31
        0.00000
 12
       32.00400
 22
       26.49220
 32
        0.00000
 13
       32.00400
 23
       26.49220
 33
        3.65760
999
ZONE-VAV-118:9E2A14
  0
3DFACE
  8
ZONE-VAV-118
 62
  8
 10
       38.25240
 20
       26.49220
 30
        0.00000
 11
       38.25240
 21
       16.48460
 31
        0.00000
 12
       32.00400
 22
       16.48460
 32
        0.00000
 13
       32.00400
 23
       26.49220
 33
        0.00000
999
ZONE-VAV-118:8C557E
  0
3DFACE
  8
ZONE-VAV-118
 62
 15
 10
       32.00400
 20
       26.49220
 30
        3.65760
 11
       32.00400
 21
       16.48460
 31
        3.65760
 12
       38.25240
 22
       16.48460
 32
        3.65760
 13
       38.25240
 23
       26.49220
 33
        3.65760
999
ZONE-VAV-120:12BEFE
  0
3DFACE
  8
ZONE-VAV-120
 62
 43
 10
       32.00400
 20
       26.49220
 30
        3.65760
 11
       32.00400
 21
       26.49220
 31
        0.00000
 12
       35.12820
 22
       26.49220
 32
        0.00000
 13
       35.12820
 23
       26.49220
 33
        3.65760
999
ZONE-VAV-120:B151DC
  0
3DFACE
  8
ZONE-VAV-120
 62
 43
 10
       35.12820
 20
       26.49220
 30
        3.65760
 11
       35.12820
 21
       26.49220
 31
        0.00000
 12
       35.12820
 22
       29.84500
 32
        0.00000
 13
       35.12820
 23
       29.84500
 33
        3.65760
999
ZONE-VAV-120:E8F883
  0
3DFACE
  8
ZONE-VAV-120
 62
 43
 10
       32.00400
 20
       29.84500
 30
        3.65760
 11
       32.00400
 21
       29.84500
 31
        0.00000
 12
       32.00400
 22
       26.49220
 32
        0.00000
 13
       32.00400
 23
       26.49220
 33
        3.65760
999
ZONE-VAV-120:5D788B
  0
3DFACE
  8
ZONE-VAV-120
 62
 43
 10
       35.12820
 20
       29.84500
 30
        3.65760
 11
       35.12820
 21
       29.84500
 31
        0.00000
 12
       32.00400
 22
       29.84500
 32
        0.00000
 13
       32.00400
 23
       29.84500
 33
        3.65760
999
ZONE-VAV-120:622CD2
  0
3DFACE
  8
ZONE-VAV-120
 62
  8
 10
       35.12820
 20
       29.84500
 30
        0.00000
 11
       35.12820
 21
       26.49220
 31
        0.00000
 12
       32.00400
 22
       26.49220
 32
        0.00000
 13
       32.00400
 23
       29.84500
 33
        0.00000
999
ZONE-VAV-120:E14A94
  0
3DFACE
  8
ZONE-VAV-120
 62
 15
 10
       32.00400
 20
       29.84500
 30
        3.65760
 11
       32.00400
 21
       26.49220
 31
        3.65760
 12
       35.12820
 22
       26.49220
 32
        3.65760
 13
       35.12820
 23
       29.84500
 33
        3.65760
999
ZONE-VAV-119:373255
  0
3DFACE
  8
ZONE-VAV-119
 62
 43
 10
       38.25240
 20
       29.84500
 30
        3.65760
 11
       38.25240
 21
       29.84500
 31
        0.00000
 12
       35.12820
 22
       29.84500
 32
        0.00000
 13
       35.12820
 23
       29.84500
 33
        3.65760
999
ZONE-VAV-119:70D914
  0
3DFACE
  8
ZONE-VAV-119
 62
 43
 10
       38.25240
 20
       26.49220
 30
        3.65760
 11
       38.25240
 21
       26.49220
 31
        0.00000
 12
       38.25240
 22
       29.84500
 32
        0.00000
 13
       38.25240
 23
       29.84500
 33
        3.65760
999
ZONE-VAV-119:7380DB
  0
3DFACE
  8
ZONE-VAV-119
 62
 43
 10
       35.12820
 20
       26.49220
 30
        3.65760
 11
       35.12820
 21
       26.49220
 31
        0.00000
 12
       38.25240
 22
       26.49220
 32
        0.00000
 13
       38.25240
 23
       26.49220
 33
        3.65760
999
ZONE-VAV-119:DCB2DA
  0
3DFACE
  8
ZONE-VAV-119
 62
 43
 10
       35.12820
 20
       29.84500
 30
        3.65760
 11
       35.12820
 21
       29.84500
 31
        0.00000
 12
       35.12820
 22
       26.49220
 32
        0.00000
 13
       35.12820
 23
       26.49220
 33
        3.65760
999
ZONE-VAV-119:5E61F0
  0
3DFACE
  8
ZONE-VAV-119
 62
  8
 10
       38.25240
 20
       29.84500
 30
        0.00000
 11
       38.25240
 21
       26.49220
 31
        0.00000
 12
       35.12820
 22
       26.49220
 32
        0.00000
 13
       35.12820
 23
       29.84500
 33
        0.00000
999
ZONE-VAV-119:A8A1BD
  0
3DFACE
  8
ZONE-VAV-119
 62
 15
 10
       35.12820
 20
       29.84500
 30
        3.65760
 11
       35.12820
 21
       26.49220
 31
        3.65760
 12
       38.25240
 22
       26.49220
 32
        3.65760
 13
       38.25240
 23
       29.84500
 33
        3.65760
999
ZONE-VAV-RESTROOM:45323F
  0
3DFACE
  8
ZONE-VAV-RESTROOM
 62
 43
 10
       40.25900
 20
       33.19780
 30
        3.65760
 11
       40.25900
 21
       33.19780
 31
        0.00000
 12
       40.25900
 22
       29.84500
 32
        0.00000
 13
       40.25900
 23
       29.84500
 33
        3.65760
999
ZONE-VAV-RESTROOM:6674C1
  0
3DFACE
  8
ZONE-VAV-RESTROOM
 62
 43
 10
       43.38320
 20
       29.84500
 30
        3.65760
 11
       43.38320
 21
       29.84500
 31
        0.00000
 12
       43.38320
 22
       33.19780
 32
        0.00000
 13
       43.38320
 23
       33.19780
 33
        3.65760
999
ZONE-VAV-RESTROOM:98370D
  0
3DFACE
  8
ZONE-VAV-RESTROOM
 62
 43
 10
       43.38320
 20
       33.19780
 30
        3.65760
 11
       43.38320
 21
       33.19780
 31
        0.00000
 12
       40.25900
 22
       33.19780
 32
        0.00000
 13
       40.25900
 23
       33.19780
 33
        3.65760
999
ZONE-VAV-RESTROOM:4D5491
  0
3DFACE
  8
ZONE-VAV-RESTROOM
 62
 43
 10
       40.25900
 20
       29.84500
 30
        3.65760
 11
       40.25900
 21
       29.84500
 31
        0.00000
 12
       43.38320
 22
       29.84500
 32
        0.00000
 13
       43.38320
 23
       29.84500
 33
        3.65760
999
ZONE-VAV-RESTROOM:75AEE2
  0
3DFACE
  8
ZONE-VAV-RESTROOM
 62
  8
 10
       43.38320
 20
       33.19780
 30
        0.00000
 11
       43.38320
 21
       29.84500
 31
        0.00000
 12
       40.25900
 22
       29.84500
 32
        0.00000
 13
       40.25900
 23
       33.19780
 33
        0.00000
999
ZONE-VAV-RESTROOM:E61CB7
  0
3DFACE
  8
ZONE-VAV-RESTROOM
 62
 15
 10
       40.25900
 20
       33.19780
 30
        3.65760
 11
       40.25900
 21
       29.84500
 31
        3.65760
 12
       43.38320
 22
       29.84500
 32
        3.65760
 13
       43.38320
 23
       33.19780
 33
        3.65760
999
ZONE-AHU-004:BD3890
  0
3DFACE
  8
ZONE-AHU-004
 62
 43
 10
       59.69000
 20
       23.13940
 30
        3.65760
 11
       59.69000
 21
       23.13940
 31
        0.00000
 12
       59.69000
 22
       18.17370
 32
        0.00000
 13
       59.69000
 23
       18.17370
 33
        3.65760
999
ZONE-AHU-004:D7B866
  0
3DFACE
  8
ZONE-AHU-004
 62
 43
 10
       75.13320
 20
       13.20800
 30
        3.65760
 11
       75.13320
 21
       13.20800
 31
        0.00000
 12
       75.13320
 22
       23.13940
 32
        0.00000
 13
       75.13320
 23
       23.13940
 33
        3.65760
999
ZONE-AHU-004:9647A9
  0
3DFACE
  8
ZONE-AHU-004
 62
 43
 10
       59.69000
 20
       13.20800
 30
        3.65760
 11
       59.69000
 21
       13.20800
 31
        0.00000
 12
       65.82410
 22
       13.20800
 32
        0.00000
 13
       65.82410
 23
       13.20800
 33
        3.65760
999
ZONE-AHU-004:725AEB
  0
3DFACE
  8
ZONE-AHU-004
 62
 43
 10
       75.13320
 20
       23.13940
 30
        3.65760
 11
       75.13320
 21
       23.13940
 31
        0.00000
 12
       59.69000
 22
       23.13940
 32
        0.00000
 13
       59.69000
 23
       23.13940
 33
        3.65760
999
ZONE-AHU-004:4EECD4
  0
3DFACE
  8
ZONE-AHU-004
 62
 43
 10
       65.82410
 20
       13.20800
 30
        3.65760
 11
       65.82410
 21
       13.20800
 31
        0.00000
 12
       69.29120
 22
       13.20800
 32
        0.00000
 13
       69.29120
 23
       13.20800
 33
        3.65760
999
ZONE-AHU-004:8D107B
  0
3DFACE
  8
ZONE-AHU-004
 62
 43
 10
       69.29120
 20
       13.20800
 30
        3.65760
 11
       69.29120
 21
       13.20800
 31
        0.00000
 12
       75.13320
 22
       13.20800
 32
        0.00000
 13
       75.13320
 23
       13.20800
 33
        3.65760
999
ZONE-AHU-004:382E4E
  0
3DFACE
  8
ZONE-AHU-004
 62
 43
 10
       59.69000
 20
       18.17370
 30
        3.65760
 11
       59.69000
 21
       18.17370
 31
        0.00000
 12
       59.69000
 22
       13.20800
 32
        0.00000
 13
       59.69000
 23
       13.20800
 33
        3.65760
999
ZONE-AHU-004:AD9FC0
  0
3DFACE
  8
ZONE-AHU-004
 62
  8
 10
       75.13320
 20
       23.13940
 30
        0.00000
 11
       75.13320
 21
       13.20800
 31
        0.00000
 12
       59.69000
 22
       13.20800
 32
        0.00000
 13
       59.69000
 23
       23.13940
 33
        0.00000
999
ZONE-AHU-004:9D1F0B
  0
3DFACE
  8
ZONE-AHU-004
 62
 15
 10
       59.69000
 20
       23.13940
 30
        3.65760
 11
       59.69000
 21
       13.20800
 31
        3.65760
 12
       75.13320
 22
       13.20800
 32
        3.65760
 13
       75.13320
 23
       23.13940
 33
        3.65760
999
ZONE-VAV-102:E7C1F5
  0
3DFACE
  8
ZONE-VAV-102
 62
 43
 10
       32.00400
 20
        3.14960
 30
        3.65760
 11
       32.00400
 21
        3.14960
 31
        0.00000
 12
       38.25240
 22
        3.14960
 32
        0.00000
 13
       38.25240
 23
        3.14960
 33
        3.65760
999
ZONE-VAV-102:BC1285
  0
3DFACE
  8
ZONE-VAV-102
 62
143
 10
       32.30880
 20
        3.14960
 30
        2.74320
 11
       32.30880
 21
        3.14960
 31
        0.30480
 12
       37.94760
 22
        3.14960
 32
        0.30480
 13
       37.94760
 23
        3.14960
 33
        2.74320
999
ZONE-VAV-102:6B550A
  0
3DFACE
  8
ZONE-VAV-102
 62
 43
 10
       32.00400
 20
        7.95020
 30
        3.65760
 11
       32.00400
 21
        7.95020
 31
        0.00000
 12
       32.00400
 22
        3.14960
 32
        0.00000
 13
       32.00400
 23
        3.14960
 33
        3.65760
999
ZONE-VAV-102:AEF218
  0
3DFACE
  8
ZONE-VAV-102
 62
 43
 10
       32.00400
 20
        9.55040
 30
        3.65760
 11
       32.00400
 21
        9.55040
 31
        0.00000
 12
       32.00400
 22
        7.95020
 32
        0.00000
 13
       32.00400
 23
        7.95020
 33
        3.65760
999
ZONE-VAV-102:12D00F
  0
3DFACE
  8
ZONE-VAV-102
 62
 43
 10
       38.25240
 20
        9.55040
 30
        3.65760
 11
       38.25240
 21
        9.55040
 31
        0.00000
 12
       32.00400
 22
        9.55040
 32
        0.00000
 13
       32.00400
 23
        9.55040
 33
        3.65760
999
ZONE-VAV-102:682AE4
  0
3DFACE
  8
ZONE-VAV-102
 62
 43
 10
       38.25240
 20
        7.95020
 30
        3.65760
 11
       38.25240
 21
        7.95020
 31
        0.00000
 12
       38.25240
 22
        9.55040
 32
        0.00000
 13
       38.25240
 23
        9.55040
 33
        3.65760
999
ZONE-VAV-102:9B07E3
  0
3DFACE
  8
ZONE-VAV-102
 62
 43
 10
       38.25240
 20
        3.14960
 30
        3.65760
 11
       38.25240
 21
        3.14960
 31
        0.00000
 12
       38.25240
 22
        7.95020
 32
        0.00000
 13
       38.25240
 23
        7.95020
 33
        3.65760
999
ZONE-VAV-102:16CCC8
  0
3DFACE
  8
ZONE-VAV-102
 62
 43
 10
       28.93060
 20
        9.55040
 30
        3.65760
 11
       28.93060
 21
        9.55040
 31
        0.00000
 12
       20.06600
 22
        9.55040
 32
        0.00000
 13
       20.06600
 23
        9.55040
 33
        3.65760
999
ZONE-VAV-102:A0B4CB
  0
3DFACE
  8
ZONE-VAV-102
 62
 43
 10
       20.06600
 20
        9.55040
 30
        3.65760
 11
       20.06600
 21
        9.55040
 31
        0.00000
 12
       20.06600
 22
        3.14960
 32
        0.00000
 13
       20.06600
 23
        3.14960
 33
        3.65760
999
ZONE-VAV-102:22681C
  0
3DFACE
  8
ZONE-VAV-102
 62
 43
 10
       28.93060
 20
        3.14960
 30
        3.65760
 11
       28.93060
 21
        3.14960
 31
        0.00000
 12
       28.93060
 22
        7.95020
 32
        0.00000
 13
       28.93060
 23
        7.95020
 33
        3.65760
999
ZONE-VAV-102:562566
  0
3DFACE
  8
ZONE-VAV-102
 62
 43
 10
       21.99640
 20
        3.14960
 30
        3.65760
 11
       21.99640
 21
        3.14960
 31
        0.00000
 12
       28.93060
 22
        3.14960
 32
        0.00000
 13
       28.93060
 23
        3.14960
 33
        3.65760
999
ZONE-VAV-102:BE17CF
  0
3DFACE
  8
ZONE-VAV-102
 62
 43
 10
       28.93060
 20
        7.95020
 30
        3.65760
 11
       28.93060
 21
        7.95020
 31
        0.00000
 12
       28.93060
 22
        9.55040
 32
        0.00000
 13
       28.93060
 23
        9.55040
 33
        3.65760
999
ZONE-VAV-102:61A643
  0
3DFACE
  8
ZONE-VAV-102
 62
 43
 10
       20.06600
 20
        3.14960
 30
        3.65760
 11
       20.06600
 21
        3.14960
 31
        0.00000
 12
       21.99640
 22
        3.14960
 32
        0.00000
 13
       21.99640
 23
        3.14960
 33
        3.65760
999
ZONE-VAV-102:7062EF
  0
3DFACE
  8
ZONE-VAV-102
 62
  8
 10
       28.93060
 20
        9.55040
 30
        0.00000
 11
       28.93060
 21
        3.14960
 31
        0.00000
 12
       20.06600
 22
        3.14960
 32
        0.00000
 13
       20.06600
 23
        9.55040
 33
        0.00000
999
ZONE-VAV-102:B72BFF
  0
3DFACE
  8
ZONE-VAV-102
 62
  8
 10
       38.25240
 20
        9.55040
 30
        0.00000
 11
       38.25240
 21
        3.14960
 31
        0.00000
 12
       32.00400
 22
        3.14960
 32
        0.00000
 13
       32.00400
 23
        9.55040
 33
        0.00000
999
ZONE-VAV-102:8CD437
  0
3DFACE
  8
ZONE-VAV-102
 62
 15
 10
       32.00400
 20
        9.55040
 30
        3.65760
 11
       32.00400
 21
        3.14960
 31
        3.65760
 12
       38.25240
 22
        3.14960
 32
        3.65760
 13
       38.25240
 23
        9.55040
 33
        3.65760
999
ZONE-VAV-102:64FE33
  0
3DFACE
  8
ZONE-VAV-102
 62
 15
 10
       20.06600
 20
        9.55040
 30
        3.65760
 11
       20.06600
 21
        3.14960
 31
        3.65760
 12
       28.93060
 22
        3.14960
 32
        3.65760
 13
       28.93060
 23
        9.55040
 33
        3.65760
999
ZONE-FCU-001:C6AA20
  0
3DFACE
  8
ZONE-FCU-001
 62
 43
 10
       28.93060
 20
       13.20800
 30
        3.65760
 11
       28.93060
 21
       13.20800
 31
        0.00000
 12
       28.93060
 22
       16.48460
 32
        0.00000
 13
       28.93060
 23
       16.48460
 33
        3.65760
999
ZONE-FCU-001:88243E
  0
3DFACE
  8
ZONE-FCU-001
 62
 43
 10
       21.99640
 20
       13.20800
 30
        3.65760
 11
       21.99640
 21
       13.20800
 31
        0.00000
 12
       28.93060
 22
       13.20800
 32
        0.00000
 13
       28.93060
 23
       13.20800
 33
        3.65760
999
ZONE-FCU-001:52A223
  0
3DFACE
  8
ZONE-FCU-001
 62
 43
 10
       28.93060
 20
       16.48460
 30
        3.65760
 11
       28.93060
 21
       16.48460
 31
        0.00000
 12
       26.87320
 22
       16.48460
 32
        0.00000
 13
       26.87320
 23
       16.48460
 33
        3.65760
999
ZONE-FCU-001:7E6D23
  0
3DFACE
  8
ZONE-FCU-001
 62
 43
 10
       21.99640
 20
       16.48460
 30
        3.65760
 11
       21.99640
 21
       16.48460
 31
        0.00000
 12
       21.99640
 22
       13.20800
 32
        0.00000
 13
       21.99640
 23
       13.20800
 33
        3.65760
999
ZONE-FCU-001:DB96B0
  0
3DFACE
  8
ZONE-FCU-001
 62
 43
 10
       26.87320
 20
       16.48460
 30
        3.65760
 11
       26.87320
 21
       16.48460
 31
        0.00000
 12
       21.99640
 22
       16.48460
 32
        0.00000
 13
       21.99640
 23
       16.48460
 33
        3.65760
999
ZONE-FCU-001:8B13EA
  0
3DFACE
  8
ZONE-FCU-001
 62
  8
 10
       28.93060
 20
       16.48460
 30
        0.00000
 11
       28.93060
 21
       13.20800
 31
        0.00000
 12
       21.99640
 22
       13.20800
 32
        0.00000
 13
       21.99640
 23
       16.48460
 33
        0.00000
999
ZONE-FCU-001:85A334
  0
3DFACE
  8
ZONE-FCU-001
 62
 15
 10
       21.99640
 20
       16.48460
 30
        3.65760
 11
       21.99640
 21
       13.20800
 31
        3.65760
 12
       28.93060
 22
       13.20800
 32
        3.65760
 13
       28.93060
 23
       16.48460
 33
        3.65760
999
ZONE-AHU-002:3E6F5A
  0
3DFACE
  8
ZONE-AHU-002
 62
 43
 10
       38.25240
 20
       29.84500
 30
        3.65760
 11
       38.25240
 21
       29.84500
 31
        0.00000
 12
       38.25240
 22
       26.49220
 32
        0.00000
 13
       38.25240
 23
       26.49220
 33
        3.65760
999
ZONE-AHU-002:7CBF6F
  0
3DFACE
  8
ZONE-AHU-002
 62
 43
 10
       51.61280
 20
       16.48460
 30
        3.65760
 11
       51.61280
 21
       16.48460
 31
        0.00000
 12
       51.61280
 22
       29.84500
 32
        0.00000
 13
       51.61280
 23
       29.84500
 33
        3.65760
999
ZONE-AHU-002:5DEF25
  0
3DFACE
  8
ZONE-AHU-002
 62
 43
 10
       51.61280
 20
       29.84500
 30
        3.65760
 11
       51.61280
 21
       29.84500
 31
        0.00000
 12
       38.25240
 22
       29.84500
 32
        0.00000
 13
       38.25240
 23
       29.84500
 33
        3.65760
999
ZONE-AHU-002:BD79B0
  0
3DFACE
  8
ZONE-AHU-002
 62
 43
 10
       38.25240
 20
       16.48460
 30
        3.65760
 11
       38.25240
 21
       16.48460
 31
        0.00000
 12
       51.61280
 22
       16.48460
 32
        0.00000
 13
       51.61280
 23
       16.48460
 33
        3.65760
999
ZONE-AHU-002:AB80DD
  0
3DFACE
  8
ZONE-AHU-002
 62
 43
 10
       38.25240
 20
       26.49220
 30
        3.65760
 11
       38.25240
 21
       26.49220
 31
        0.00000
 12
       38.25240
 22
       16.48460
 32
        0.00000
 13
       38.25240
 23
       16.48460
 33
        3.65760
999
ZONE-AHU-002:9681B4
  0
3DFACE
  8
ZONE-AHU-002
 62
  8
 10
       51.61280
 20
       29.84500
 30
        0.00000
 11
       51.61280
 21
       16.48460
 31
        0.00000
 12
       38.25240
 22
       16.48460
 32
        0.00000
 13
       38.25240
 23
       29.84500
 33
        0.00000
999
ZONE-AHU-002:AC1002
  0
3DFACE
  8
ZONE-AHU-002
 62
 15
 10
       38.25240
 20
       29.84500
 30
        3.65760
 11
       38.25240
 21
       16.48460
 31
        3.65760
 12
       51.61280
 22
       16.48460
 32
        3.65760
 13
       51.61280
 23
       29.84500
 33
        3.65760
999
ZONE-VAV-105:9877BA
  0
3DFACE
  8
ZONE-VAV-105
 62
 43
 10
       51.61280
 20
        9.55040
 30
        3.65760
 11
       51.61280
 21
        9.55040
 31
        0.00000
 12
       41.32580
 22
        9.55040
 32
        0.00000
 13
       41.32580
 23
        9.55040
 33
        3.65760
999
ZONE-VAV-105:592F78
  0
3DFACE
  8
ZONE-VAV-105
 62
 43
 10
       51.61280
 20
        4.74980
 30
        3.65760
 11
       51.61280
 21
        4.74980
 31
        0.00000
 12
       51.61280
 22
        9.55040
 32
        0.00000
 13
       51.61280
 23
        9.55040
 33
        3.65760
999
ZONE-VAV-105:1596A2
  0
3DFACE
  8
ZONE-VAV-105
 62
 43
 10
       55.42280
 20
        4.74980
 30
        3.65760
 11
       55.42280
 21
        4.74980
 31
        0.00000
 12
       51.61280
 22
        4.74980
 32
        0.00000
 13
       51.61280
 23
        4.74980
 33
        3.65760
999
ZONE-VAV-105:728810
  0
3DFACE
  8
ZONE-VAV-105
 62
 43
 10
       49.42840
 20
        3.14960
 30
        3.65760
 11
       49.42840
 21
        3.14960
 31
        0.00000
 12
       49.42840
 22
        0.00000
 32
        0.00000
 13
       49.42840
 23
        0.00000
 33
        3.65760
999
ZONE-VAV-105:42FD5E
  0
3DFACE
  8
ZONE-VAV-105
 62
 43
 10
       41.32580
 20
        3.14960
 30
        3.65760
 11
       41.32580
 21
        3.14960
 31
        0.00000
 12
       49.42840
 22
        3.14960
 32
        0.00000
 13
       49.42840
 23
        3.14960
 33
        3.65760
999
ZONE-VAV-105:20FDF2
  0
3DFACE
  8
ZONE-VAV-105
 62
143
 10
       41.63060
 20
        3.14960
 30
        2.74320
 11
       41.63060
 21
        3.14960
 31
        0.30480
 12
       49.12360
 22
        3.14960
 32
        0.30480
 13
       49.12360
 23
        3.14960
 33
        2.74320
999
ZONE-VAV-105:355A3A
  0
3DFACE
  8
ZONE-VAV-105
 62
 43
 10
       41.32580
 20
        9.55040
 30
        3.65760
 11
       41.32580
 21
        9.55040
 31
        0.00000
 12
       41.32580
 22
        7.95020
 32
        0.00000
 13
       41.32580
 23
        7.95020
 33
        3.65760
999
ZONE-VAV-105:9FC230
  0
3DFACE
  8
ZONE-VAV-105
 62
 43
 10
       55.42280
 20
        0.00000
 30
        3.65760
 11
       55.42280
 21
        0.00000
 31
        0.00000
 12
       55.42280
 22
        4.74980
 32
        0.00000
 13
       55.42280
 23
        4.74980
 33
        3.65760
999
ZONE-VAV-105:ED8362
  0
3DFACE
  8
ZONE-VAV-105
 62
 43
 10
       49.42840
 20
        0.00000
 30
        3.65760
 11
       49.42840
 21
        0.00000
 31
        0.00000
 12
       55.42280
 22
        0.00000
 32
        0.00000
 13
       55.42280
 23
        0.00000
 33
        3.65760
999
ZONE-VAV-105:614C05
  0
3DFACE
  8
ZONE-VAV-105
 62
 43
 10
       41.32580
 20
        7.95020
 30
        3.65760
 11
       41.32580
 21
        7.95020
 31
        0.00000
 12
       41.32580
 22
        3.14960
 32
        0.00000
 13
       41.32580
 23
        3.14960
 33
        3.65760
999
ZONE-VAV-105:DB9DEC
  0
3DFACE
  8
ZONE-VAV-105
 62
  8
 10
       51.61280
 20
        9.55040
 30
        0.00000
 11
       51.61280
 21
        4.74980
 31
        0.00000
 12
       41.32580
 22
        4.74980
 32
        0.00000
 13
       41.32580
 23
        9.55040
 33
        0.00000
999
ZONE-VAV-105:F61AAB
  0
3DFACE
  8
ZONE-VAV-105
 62
  8
 10
       55.42280
 20
        4.74980
 30
        0.00000
 11
       55.42280
 21
        0.00000
 31
        0.00000
 12
       49.42840
 22
        0.00000
 32
        0.00000
 13
       49.42840
 23
        4.74980
 33
        0.00000
999
ZONE-VAV-105:6F02EB
  0
3DFACE
  8
ZONE-VAV-105
 62
  8
 10
       49.42840
 20
        4.74980
 30
        0.00000
 11
       49.42840
 21
        3.14960
 31
        0.00000
 12
       41.32580
 22
        3.14960
 32
        0.00000
 13
       41.32580
 23
        4.74980
 33
        0.00000
999
ZONE-VAV-105:E2E7CC
  0
3DFACE
  8
ZONE-VAV-105
 62
 15
 10
       41.32580
 20
        4.74980
 30
        3.65760
 11
       41.32580
 21
        3.14960
 31
        3.65760
 12
       49.42840
 22
        3.14960
 32
        3.65760
 13
       49.42840
 23
        4.74980
 33
        3.65760
999
ZONE-VAV-105:A6D9B8
  0
3DFACE
  8
ZONE-VAV-105
 62
 15
 10
       41.32580
 20
        9.55040
 30
        3.65760
 11
       41.32580
 21
        4.74980
 31
        3.65760
 12
       51.61280
 22
        4.74980
 32
        3.65760
 13
       51.61280
 23
        9.55040
 33
        3.65760
999
ZONE-VAV-105:5A4015
  0
3DFACE
  8
ZONE-VAV-105
 62
 15
 10
       49.42840
 20
        4.74980
 30
        3.65760
 11
       49.42840
 21
        0.00000
 31
        3.65760
 12
       55.42280
 22
        0.00000
 32
        3.65760
 13
       55.42280
 23
        4.74980
 33
        3.65760
999
ZONE-FCU-003:37E38F
  0
3DFACE
  8
ZONE-FCU-003
 62
 43
 10
       59.69000
 20
       18.17370
 30
        3.65760
 11
       59.69000
 21
       18.17370
 31
        0.00000
 12
       59.69000
 22
       23.13940
 32
        0.00000
 13
       59.69000
 23
       23.13940
 33
        3.65760
999
ZONE-FCU-003:3800AA
  0
3DFACE
  8
ZONE-FCU-003
 62
 43
 10
       51.61280
 20
       23.13940
 30
        3.65760
 11
       51.61280
 21
       23.13940
 31
        0.00000
 12
       51.61280
 22
       18.17370
 32
        0.00000
 13
       51.61280
 23
       18.17370
 33
        3.65760
999
ZONE-FCU-003:EE06C3
  0
3DFACE
  8
ZONE-FCU-003
 62
 43
 10
       51.61280
 20
       18.17370
 30
        3.65760
 11
       51.61280
 21
       18.17370
 31
        0.00000
 12
       59.69000
 22
       18.17370
 32
        0.00000
 13
       59.69000
 23
       18.17370
 33
        3.65760
999
ZONE-FCU-003:1AF671
  0
3DFACE
  8
ZONE-FCU-003
 62
 43
 10
       59.69000
 20
       23.13940
 30
        3.65760
 11
       59.69000
 21
       23.13940
 31
        0.00000
 12
       51.61280
 22
       23.13940
 32
        0.00000
 13
       51.61280
 23
       23.13940
 33
        3.65760
999
ZONE-FCU-003:EE4EDD
  0
3DFACE
  8
ZONE-FCU-003
 62
  8
 10
       59.69000
 20
       23.13940
 30
        0.00000
 11
       59.69000
 21
       18.17370
 31
        0.00000
 12
       51.61280
 22
       18.17370
 32
        0.00000
 13
       51.61280
 23
       23.13940
 33
        0.00000
999
ZONE-FCU-003:2558D3
  0
3DFACE
  8
ZONE-FCU-003
 62
 15
 10
       51.61280
 20
       23.13940
 30
        3.65760
 11
       51.61280
 21
       18.17370
 31
        3.65760
 12
       59.69000
 22
       18.17370
 32
        3.65760
 13
       59.69000
 23
       23.13940
 33
        3.65760
999
ZONE-VAV-112:235FEE
  0
3DFACE
  8
ZONE-VAV-112
 62
 43
 10
       59.69000
 20
       13.20800
 30
        3.65760
 11
       59.69000
 21
       13.20800
 31
        0.00000
 12
       59.69000
 22
       18.17370
 32
        0.00000
 13
       59.69000
 23
       18.17370
 33
        3.65760
999
ZONE-VAV-112:94B757
  0
3DFACE
  8
ZONE-VAV-112
 62
 43
 10
       51.61280
 20
       18.17370
 30
        3.65760
 11
       51.61280
 21
       18.17370
 31
        0.00000
 12
       51.61280
 22
       16.48460
 32
        0.00000
 13
       51.61280
 23
       16.48460
 33
        3.65760
999
ZONE-VAV-112:AADEC0
  0
3DFACE
  8
ZONE-VAV-112
 62
 43
 10
       59.69000
 20
       18.17370
 30
        3.65760
 11
       59.69000
 21
       18.17370
 31
        0.00000
 12
       51.61280
 22
       18.17370
 32
        0.00000
 13
       51.61280
 23
       18.17370
 33
        3.65760
999
ZONE-VAV-112:F928F4
  0
3DFACE
  8
ZONE-VAV-112
 62
 43
 10
       51.61280
 20
       13.20800
 30
        3.65760
 11
       51.61280
 21
       13.20800
 31
        0.00000
 12
       59.69000
 22
       13.20800
 32
        0.00000
 13
       59.69000
 23
       13.20800
 33
        3.65760
999
ZONE-VAV-112:C8816F
  0
3DFACE
  8
ZONE-VAV-112
 62
 43
 10
       51.61280
 20
       16.48460
 30
        3.65760
 11
       51.61280
 21
       16.48460
 31
        0.00000
 12
       51.61280
 22
       13.20800
 32
        0.00000
 13
       51.61280
 23
       13.20800
 33
        3.65760
999
ZONE-VAV-112:CBC413
  0
3DFACE
  8
ZONE-VAV-112
 62
  8
 10
       59.69000
 20
       18.17370
 30
        0.00000
 11
       59.69000
 21
       13.20800
 31
        0.00000
 12
       51.61280
 22
       13.20800
 32
        0.00000
 13
       51.61280
 23
       18.17370
 33
        0.00000
999
ZONE-VAV-112:938241
  0
3DFACE
  8
ZONE-VAV-112
 62
 15
 10
       51.61280
 20
       18.17370
 30
        3.65760
 11
       51.61280
 21
       13.20800
 31
        3.65760
 12
       59.69000
 22
       13.20800
 32
        3.65760
 13
       59.69000
 23
       18.17370
 33
        3.65760
999
ZONE-HTR-002:E48534
  0
3DFACE
  8
ZONE-HTR-002
 62
 43
 10
       32.00400
 20
        7.95020
 30
        3.65760
 11
       32.00400
 21
        7.95020
 31
        0.00000
 12
       28.93060
 22
        7.95020
 32
        0.00000
 13
       28.93060
 23
        7.95020
 33
        3.65760
999
ZONE-HTR-002:25014C
  0
3DFACE
  8
ZONE-HTR-002
 62
 43
 10
       28.93060
 20
        7.95020
 30
        3.65760
 11
       28.93060
 21
        7.95020
 31
        0.00000
 12
       28.93060
 22
        3.14960
 32
        0.00000
 13
       28.93060
 23
        3.14960
 33
        3.65760
999
ZONE-HTR-002:51B654
  0
3DFACE
  8
ZONE-HTR-002
 62
 43
 10
       32.00400
 20
        3.14960
 30
        3.65760
 11
       32.00400
 21
        3.14960
 31
        0.00000
 12
       32.00400
 22
        7.95020
 32
        0.00000
 13
       32.00400
 23
        7.95020
 33
        3.65760
999
ZONE-HTR-002:6C7F5F
  0
3DFACE
  8
ZONE-HTR-002
 62
 43
 10
       28.93060
 20
        3.14960
 30
        3.65760
 11
       28.93060
 21
        3.14960
 31
        0.00000
 12
       32.00400
 22
        3.14960
 32
        0.00000
 13
       32.00400
 23
        3.14960
 33
        3.65760
999
ZONE-HTR-002:D38F48
  0
3DFACE
  8
ZONE-HTR-002
 62
  8
 10
       32.00400
 20
        7.95020
 30
        0.00000
 11
       32.00400
 21
        3.14960
 31
        0.00000
 12
       28.93060
 22
        3.14960
 32
        0.00000
 13
       28.93060
 23
        7.95020
 33
        0.00000
999
ZONE-HTR-002:A0249B
  0
3DFACE
  8
ZONE-HTR-002
 62
 15
 10
       28.93060
 20
        7.95020
 30
        3.65760
 11
       28.93060
 21
        3.14960
 31
        3.65760
 12
       32.00400
 22
        3.14960
 32
        3.65760
 13
       32.00400
 23
        7.95020
 33
        3.65760
999
ZONE-HTR-003:400F5E
  0
3DFACE
  8
ZONE-HTR-003
 62
 43
 10
       38.25240
 20
        3.14960
 30
        3.65760
 11
       38.25240
 21
        3.14960
 31
        0.00000
 12
       41.32580
 22
        3.14960
 32
        0.00000
 13
       41.32580
 23
        3.14960
 33
        3.65760
999
ZONE-HTR-003:15F805
  0
3DFACE
  8
ZONE-HTR-003
 62
 43
 10
       41.32580
 20
        3.14960
 30
        3.65760
 11
       41.32580
 21
        3.14960
 31
        0.00000
 12
       41.32580
 22
        7.95020
 32
        0.00000
 13
       41.32580
 23
        7.95020
 33
        3.65760
999
ZONE-HTR-003:176D97
  0
3DFACE
  8
ZONE-HTR-003
 62
 43
 10
       41.32580
 20
        7.95020
 30
        3.65760
 11
       41.32580
 21
        7.95020
 31
        0.00000
 12
       38.25240
 22
        7.95020
 32
        0.00000
 13
       38.25240
 23
        7.95020
 33
        3.65760
999
ZONE-HTR-003:D94B49
  0
3DFACE
  8
ZONE-HTR-003
 62
 43
 10
       38.25240
 20
        7.95020
 30
        3.65760
 11
       38.25240
 21
        7.95020
 31
        0.00000
 12
       38.25240
 22
        3.14960
 32
        0.00000
 13
       38.25240
 23
        3.14960
 33
        3.65760
999
ZONE-HTR-003:A2DD42
  0
3DFACE
  8
ZONE-HTR-003
 62
  8
 10
       41.32580
 20
        7.95020
 30
        0.00000
 11
       41.32580
 21
        3.14960
 31
        0.00000
 12
       38.25240
 22
        3.14960
 32
        0.00000
 13
       38.25240
 23
        7.95020
 33
        0.00000
999
ZONE-HTR-003:34F172
  0
3DFACE
  8
ZONE-HTR-003
 62
 15
 10
       38.25240
 20
        7.95020
 30
        3.65760
 11
       38.25240
 21
        3.14960
 31
        3.65760
 12
       41.32580
 22
        3.14960
 32
        3.65760
 13
       41.32580
 23
        7.95020
 33
        3.65760
999
ZONE-VAV-104:D9ECFA
  0
3DFACE
  8
ZONE-VAV-104
 62
 43
 10
       51.61280
 20
       13.20800
 30
        3.65760
 11
       51.61280
 21
       13.20800
 31
        0.00000
 12
       51.61280
 22
       16.48460
 32
        0.00000
 13
       51.61280
 23
       16.48460
 33
        3.65760
999
ZONE-VAV-104:C8B155
  0
3DFACE
  8
ZONE-VAV-104
 62
 43
 10
       51.61280
 20
       16.48460
 30
        3.65760
 11
       51.61280
 21
       16.48460
 31
        0.00000
 12
       45.37710
 22
       16.48460
 32
        0.00000
 13
       45.37710
 23
       16.48460
 33
        3.65760
999
ZONE-VAV-104:DA1EA2
  0
3DFACE
  8
ZONE-VAV-104
 62
 43
 10
       45.37710
 20
       16.48460
 30
        3.65760
 11
       45.37710
 21
       16.48460
 31
        0.00000
 12
       45.37710
 22
       13.20800
 32
        0.00000
 13
       45.37710
 23
       13.20800
 33
        3.65760
999
ZONE-VAV-104:FE12A2
  0
3DFACE
  8
ZONE-VAV-104
 62
 43
 10
       45.37710
 20
       13.20800
 30
        3.65760
 11
       45.37710
 21
       13.20800
 31
        0.00000
 12
       51.61280
 22
       13.20800
 32
        0.00000
 13
       51.61280
 23
       13.20800
 33
        3.65760
999
ZONE-VAV-104:8EF9B2
  0
3DFACE
  8
ZONE-VAV-104
 62
  8
 10
       51.61280
 20
       16.48460
 30
        0.00000
 11
       51.61280
 21
       13.20800
 31
        0.00000
 12
       45.37710
 22
       13.20800
 32
        0.00000
 13
       45.37710
 23
       16.48460
 33
        0.00000
999
ZONE-VAV-104:9A0B43
  0
3DFACE
  8
ZONE-VAV-104
 62
 15
 10
       45.37710
 20
       16.48460
 30
        3.65760
 11
       45.37710
 21
       13.20800
 31
        3.65760
 12
       51.61280
 22
       13.20800
 32
        3.65760
 13
       51.61280
 23
       16.48460
 33
        3.65760
999
ZONE-VAV-116:44D6DF
  0
3DFACE
  8
ZONE-VAV-116
 62
 43
 10
       45.37710
 20
       13.20800
 30
        3.65760
 11
       45.37710
 21
       13.20800
 31
        0.00000
 12
       45.37710
 22
       16.48460
 32
        0.00000
 13
       45.37710
 23
       16.48460
 33
        3.65760
999
ZONE-VAV-116:764FC8
  0
3DFACE
  8
ZONE-VAV-116
 62
 43
 10
       41.32580
 20
       16.48460
 30
        3.65760
 11
       41.32580
 21
       16.48460
 31
        0.00000
 12
       41.32580
 22
       13.20800
 32
        0.00000
 13
       41.32580
 23
       13.20800
 33
        3.65760
999
ZONE-VAV-116:440DD9
  0
3DFACE
  8
ZONE-VAV-116
 62
 43
 10
       41.32580
 20
       13.20800
 30
        3.65760
 11
       41.32580
 21
       13.20800
 31
        0.00000
 12
       45.37710
 22
       13.20800
 32
        0.00000
 13
       45.37710
 23
       13.20800
 33
        3.65760
999
ZONE-VAV-116:E8B018
  0
3DFACE
  8
ZONE-VAV-116
 62
 43
 10
       45.37710
 20
       16.48460
 30
        3.65760
 11
       45.37710
 21
       16.48460
 31
        0.00000
 12
       41.32580
 22
       16.48460
 32
        0.00000
 13
       41.32580
 23
       16.48460
 33
        3.65760
999
ZONE-VAV-116:A548BB
  0
3DFACE
  8
ZONE-VAV-116
 62
  8
 10
       45.37710
 20
       16.48460
 30
        0.00000
 11
       45.37710
 21
       13.20800
 31
        0.00000
 12
       41.32580
 22
       13.20800
 32
        0.00000
 13
       41.32580
 23
       16.48460
 33
        0.00000
999
ZONE-VAV-116:7448EF
  0
3DFACE
  8
ZONE-VAV-116
 62
 15
 10
       41.32580
 20
       16.48460
 30
        3.65760
 11
       41.32580
 21
       13.20800
 31
        3.65760
 12
       45.37710
 22
       13.20800
 32
        3.65760
 13
       45.37710
 23
       16.48460
 33
        3.65760
999
ZONE-VAV-108:66A10F
  0
3DFACE
  8
ZONE-VAV-108
 62
 43
 10
       55.42280
 20
        9.55040
 30
        3.65760
 11
       55.42280
 21
        9.55040
 31
        0.00000
 12
       55.42280
 22
        4.74980
 32
        0.00000
 13
       55.42280
 23
        4.77520
 33
        3.65760
999
ZONE-VAV-108:73DDDD
  0
3DFACE
  8
ZONE-VAV-108
 62
 43
 10
       62.35700
 20
        0.00000
 30
        3.65760
 11
       62.35700
 21
        0.00000
 31
        0.00000
 12
       62.35700
 22
        9.55040
 32
        0.00000
 13
       62.35700
 23
        9.55040
 33
        3.65760
999
ZONE-VAV-108:12EC3B
  0
3DFACE
  8
ZONE-VAV-108
 62
 43
 10
       62.35700
 20
        9.55040
 30
        3.65760
 11
       62.35700
 21
        9.55040
 31
        0.00000
 12
       55.42280
 22
        9.55040
 32
        0.00000
 13
       55.42280
 23
        9.55040
 33
        3.65760
999
ZONE-VAV-108:6E56C5
  0
3DFACE
  8
ZONE-VAV-108
 62
 43
 10
       55.42280
 20
        0.00000
 30
        3.65760
 11
       55.42280
 21
        0.00000
 31
        0.00000
 12
       62.35700
 22
        0.00000
 32
        0.00000
 13
       62.35700
 23
        0.00000
 33
        3.65760
999
ZONE-VAV-108:911903
  0
3DFACE
  8
ZONE-VAV-108
 62
 43
 10
       55.42280
 20
        4.77520
 30
        3.65760
 11
       55.42280
 21
        4.74980
 31
        0.00000
 12
       55.42280
 22
        0.00000
 32
        0.00000
 13
       55.42280
 23
        0.00000
 33
        3.65760
999
ZONE-VAV-108:C926C3
  0
3DFACE
  8
ZONE-VAV-108
 62
  8
 10
       62.35700
 20
        9.55040
 30
        0.00000
 11
       62.35700
 21
        0.00000
 31
        0.00000
 12
       55.42280
 22
        0.00000
 32
        0.00000
 13
       55.42280
 23
        9.55040
 33
        0.00000
999
ZONE-VAV-108:7886FD
  0
3DFACE
  8
ZONE-VAV-108
 62
 15
 10
       55.42280
 20
        9.55040
 30
        3.65760
 11
       55.42280
 21
        0.00000
 31
        3.65760
 12
       62.35700
 22
        0.00000
 32
        3.65760
 13
       62.35700
 23
        9.55040
 33
        3.65760
999
ZONE-FCU-002:1A6790
  0
3DFACE
  8
ZONE-FCU-002
 62
 43
 10
       69.29120
 20
        9.55040
 30
        3.65760
 11
       69.29120
 21
        9.55040
 31
        0.00000
 12
       65.82410
 22
        9.55040
 32
        0.00000
 13
       65.82410
 23
        9.55040
 33
        3.65760
999
ZONE-FCU-002:B08716
  0
3DFACE
  8
ZONE-FCU-002
 62
 43
 10
       69.29120
 20
        0.00000
 30
        3.65760
 11
       69.29120
 21
        0.00000
 31
        0.00000
 12
       69.29120
 22
        9.55040
 32
        0.00000
 13
       69.29120
 23
        9.55040
 33
        3.65760
999
ZONE-FCU-002:3FC302
  0
3DFACE
  8
ZONE-FCU-002
 62
 43
 10
       62.35700
 20
        0.00000
 30
        3.65760
 11
       62.35700
 21
        0.00000
 31
        0.00000
 12
       69.29120
 22
        0.00000
 32
        0.00000
 13
       69.29120
 23
        0.00000
 33
        3.65760
999
ZONE-FCU-002:FBE89A
  0
3DFACE
  8
ZONE-FCU-002
 62
 43
 10
       62.35700
 20
        9.55040
 30
        3.65760
 11
       62.35700
 21
        9.55040
 31
        0.00000
 12
       62.35700
 22
        0.00000
 32
        0.00000
 13
       62.35700
 23
        0.00000
 33
        3.65760
999
ZONE-FCU-002:E9C11B
  0
3DFACE
  8
ZONE-FCU-002
 62
 43
 10
       65.82410
 20
        9.55040
 30
        3.65760
 11
       65.82410
 21
        9.55040
 31
        0.00000
 12
       62.35700
 22
        9.55040
 32
        0.00000
 13
       62.35700
 23
        9.55040
 33
        3.65760
999
ZONE-FCU-002:6121F5
  0
3DFACE
  8
ZONE-FCU-002
 62
  8
 10
       69.29120
 20
        9.55040
 30
        0.00000
 11
       69.29120
 21
        0.00000
 31
        0.00000
 12
       62.35700
 22
        0.00000
 32
        0.00000
 13
       62.35700
 23
        9.55040
 33
        0.00000
999
ZONE-FCU-002:F9D64D
  0
3DFACE
  8
ZONE-FCU-002
 62
 15
 10
       62.35700
 20
        9.55040
 30
        3.65760
 11
       62.35700
 21
        0.00000
 31
        3.65760
 12
       69.29120
 22
        0.00000
 32
        3.65760
 13
       69.29120
 23
        9.55040
 33
        3.65760
999
ZONE-HTR-004:B68F46
  0
3DFACE
  8
ZONE-HTR-004
 62
 43
 10
       69.29120
 20
        9.55040
 30
        3.65760
 11
       69.29120
 21
        9.55040
 31
        0.00000
 12
       69.29120
 22
       13.20800
 32
        0.00000
 13
       69.29120
 23
       13.20800
 33
        3.65760
999
ZONE-HTR-004:11AAD7
  0
3DFACE
  8
ZONE-HTR-004
 62
 43
 10
       65.82410
 20
        9.55040
 30
        3.65760
 11
       65.82410
 21
        9.55040
 31
        0.00000
 12
       69.29120
 22
        9.55040
 32
        0.00000
 13
       69.29120
 23
        9.55040
 33
        3.65760
999
ZONE-HTR-004:411D93
  0
3DFACE
  8
ZONE-HTR-004
 62
 43
 10
       69.29120
 20
       13.20800
 30
        3.65760
 11
       69.29120
 21
       13.20800
 31
        0.00000
 12
       65.82410
 22
       13.20800
 32
        0.00000
 13
       65.82410
 23
       13.20800
 33
        3.65760
999
ZONE-HTR-004:C3DAF3
  0
3DFACE
  8
ZONE-HTR-004
 62
 43
 10
       65.82410
 20
       13.20800
 30
        3.65760
 11
       65.82410
 21
       13.20800
 31
        0.00000
 12
       65.82410
 22
        9.55040
 32
        0.00000
 13
       65.82410
 23
        9.55040
 33
        3.65760
999
ZONE-HTR-004:578A99
  0
3DFACE
  8
ZONE-HTR-004
 62
  8
 10
       69.29120
 20
       13.20800
 30
        0.00000
 11
       69.29120
 21
        9.55040
 31
        0.00000
 12
       65.82410
 22
        9.55040
 32
        0.00000
 13
       65.82410
 23
       13.20800
 33
        0.00000
999
ZONE-HTR-004:C39C80
  0
3DFACE
  8
ZONE-HTR-004
 62
 15
 10
       65.82410
 20
       13.20800
 30
        3.65760
 11
       65.82410
 21
        9.55040
 31
        3.65760
 12
       69.29120
 22
        9.55040
 32
        3.65760
 13
       69.29120
 23
       13.20800
 33
        3.65760
999
ZONE-VAV-CORRIDOR:E7C033
  0
3DFACE
  8
ZONE-VAV-CORRIDOR
 62
 43
 10
       65.82410
 20
        9.55040
 30
        3.65760
 11
       65.82410
 21
        9.55040
 31
        0.00000
 12
       65.82410
 22
       13.20800
 32
        0.00000
 13
       65.82410
 23
       13.20800
 33
        3.65760
999
ZONE-VAV-CORRIDOR:7336D1
  0
3DFACE
  8
ZONE-VAV-CORRIDOR
 62
 43
 10
       32.00400
 20
        9.55040
 30
        3.65760
 11
       32.00400
 21
        9.55040
 31
        0.00000
 12
       38.25240
 22
        9.55040
 32
        0.00000
 13
       38.25240
 23
        9.55040
 33
        3.65760
999
ZONE-VAV-CORRIDOR:613051
  0
3DFACE
  8
ZONE-VAV-CORRIDOR
 62
 43
 10
       41.32580
 20
        9.55040
 30
        3.65760
 11
       41.32580
 21
        9.55040
 31
        0.00000
 12
       51.61280
 22
        9.55040
 32
        0.00000
 13
       51.61280
 23
        9.55040
 33
        3.65760
999
ZONE-VAV-CORRIDOR:B28752
  0
3DFACE
  8
ZONE-VAV-CORRIDOR
 62
 43
 10
       38.25240
 20
        9.55040
 30
        3.65760
 11
       38.25240
 21
        9.55040
 31
        0.00000
 12
       38.25240
 22
        7.95020
 32
        0.00000
 13
       38.25240
 23
        7.95020
 33
        3.65760
999
ZONE-VAV-CORRIDOR:50F125
  0
3DFACE
  8
ZONE-VAV-CORRIDOR
 62
 43
 10
       38.25240
 20
        7.95020
 30
        3.65760
 11
       38.25240
 21
        7.95020
 31
        0.00000
 12
       41.32580
 22
        7.95020
 32
        0.00000
 13
       41.32580
 23
        7.95020
 33
        3.65760
999
ZONE-VAV-CORRIDOR:EC5B53
  0
3DFACE
  8
ZONE-VAV-CORRIDOR
 62
 43
 10
       41.32580
 20
        7.95020
 30
        3.65760
 11
       41.32580
 21
        7.95020
 31
        0.00000
 12
       41.32580
 22
        9.55040
 32
        0.00000
 13
       41.32580
 23
        9.55040
 33
        3.65760
999
ZONE-VAV-CORRIDOR:5B45AC
  0
3DFACE
  8
ZONE-VAV-CORRIDOR
 62
 43
 10
       28.93060
 20
        9.55040
 30
        3.65760
 11
       28.93060
 21
        9.55040
 31
        0.00000
 12
       28.93060
 22
        7.95020
 32
        0.00000
 13
       28.93060
 23
        7.95020
 33
        3.65760
999
ZONE-VAV-CORRIDOR:B6AA34
  0
3DFACE
  8
ZONE-VAV-CORRIDOR
 62
 43
 10
       32.00400
 20
        7.95020
 30
        3.65760
 11
       32.00400
 21
        7.95020
 31
        0.00000
 12
       32.00400
 22
        9.55040
 32
        0.00000
 13
       32.00400
 23
        9.55040
 33
        3.65760
999
ZONE-VAV-CORRIDOR:5FED71
  0
3DFACE
  8
ZONE-VAV-CORRIDOR
 62
 43
 10
       18.13560
 20
        9.55040
 30
        3.65760
 11
       18.13560
 21
        9.55040
 31
        0.00000
 12
       20.06600
 22
        9.55040
 32
        0.00000
 13
       20.06600
 23
        9.55040
 33
        3.65760
999
ZONE-VAV-CORRIDOR:41CB0D
  0
3DFACE
  8
ZONE-VAV-CORRIDOR
 62
 43
 10
       18.13560
 20
       13.20800
 30
        3.65760
 11
       18.13560
 21
       13.20800
 31
        0.00000
 12
       18.13560
 22
        9.55040
 32
        0.00000
 13
       18.13560
 23
        9.55040
 33
        3.65760
999
ZONE-VAV-CORRIDOR:C4EAC7
  0
3DFACE
  8
ZONE-VAV-CORRIDOR
 62
 43
 10
       28.93060
 20
        7.95020
 30
        3.65760
 11
       28.93060
 21
        7.95020
 31
        0.00000
 12
       32.00400
 22
        7.95020
 32
        0.00000
 13
       32.00400
 23
        7.95020
 33
        3.65760
999
ZONE-VAV-CORRIDOR:32D862
  0
3DFACE
  8
ZONE-VAV-CORRIDOR
 62
 43
 10
       41.32580
 20
       13.20800
 30
        3.65760
 11
       41.32580
 21
       13.20800
 31
        0.00000
 12
       41.32580
 22
       16.48460
 32
        0.00000
 13
       41.32580
 23
       16.48460
 33
        3.65760
999
ZONE-VAV-CORRIDOR:EC4B77
  0
3DFACE
  8
ZONE-VAV-CORRIDOR
 62
 43
 10
       65.82410
 20
       13.20800
 30
        3.65760
 11
       65.82410
 21
       13.20800
 31
        0.00000
 12
       59.69000
 22
       13.20800
 32
        0.00000
 13
       59.69000
 23
       13.20800
 33
        3.65760
999
ZONE-VAV-CORRIDOR:9F2596
  0
3DFACE
  8
ZONE-VAV-CORRIDOR
 62
 43
 10
       28.93060
 20
       13.20800
 30
        3.65760
 11
       28.93060
 21
       13.20800
 31
        0.00000
 12
       21.99640
 22
       13.20800
 32
        0.00000
 13
       21.99640
 23
       13.20800
 33
        3.65760
999
ZONE-VAV-CORRIDOR:C0548F
  0
3DFACE
  8
ZONE-VAV-CORRIDOR
 62
 43
 10
       28.93060
 20
       16.48460
 30
        3.65760
 11
       28.93060
 21
       16.48460
 31
        0.00000
 12
       28.93060
 22
       13.20800
 32
        0.00000
 13
       28.93060
 23
       13.20800
 33
        3.65760
999
ZONE-VAV-CORRIDOR:AC7D3A
  0
3DFACE
  8
ZONE-VAV-CORRIDOR
 62
 43
 10
       41.32580
 20
       16.48460
 30
        3.65760
 11
       41.32580
 21
       16.48460
 31
        0.00000
 12
       38.25240
 22
       16.48460
 32
        0.00000
 13
       38.25240
 23
       16.48460
 33
        3.65760
999
ZONE-VAV-CORRIDOR:FDB90A
  0
3DFACE
  8
ZONE-VAV-CORRIDOR
 62
 43
 10
       45.37710
 20
       13.20800
 30
        3.65760
 11
       45.37710
 21
       13.20800
 31
        0.00000
 12
       41.32580
 22
       13.20800
 32
        0.00000
 13
       41.32580
 23
       13.20800
 33
        3.65760
999
ZONE-VAV-CORRIDOR:A7734E
  0
3DFACE
  8
ZONE-VAV-CORRIDOR
 62
 43
 10
       32.00400
 20
       16.48460
 30
        3.65760
 11
       32.00400
 21
       16.48460
 31
        0.00000
 12
       28.93060
 22
       16.48460
 32
        0.00000
 13
       28.93060
 23
       16.48460
 33
        3.65760
999
ZONE-VAV-CORRIDOR:BB7D9D
  0
3DFACE
  8
ZONE-VAV-CORRIDOR
 62
 43
 10
       38.25240
 20
       16.48460
 30
        3.65760
 11
       38.25240
 21
       16.48460
 31
        0.00000
 12
       32.00400
 22
       16.48460
 32
        0.00000
 13
       32.00400
 23
       16.48460
 33
        3.65760
999
ZONE-VAV-CORRIDOR:9EFFD7
  0
3DFACE
  8
ZONE-VAV-CORRIDOR
 62
 43
 10
       51.61280
 20
        9.55040
 30
        3.65760
 11
       51.61280
 21
        9.55040
 31
        0.00000
 12
       55.42280
 22
        9.55040
 32
        0.00000
 13
       55.42280
 23
        9.55040
 33
        3.65760
999
ZONE-VAV-CORRIDOR:545D10
  0
3DFACE
  8
ZONE-VAV-CORRIDOR
 62
 43
 10
       55.42280
 20
        9.55040
 30
        3.65760
 11
       55.42280
 21
        9.55040
 31
        0.00000
 12
       62.35700
 22
        9.55040
 32
        0.00000
 13
       62.35700
 23
        9.55040
 33
        3.65760
999
ZONE-VAV-CORRIDOR:ED55AF
  0
3DFACE
  8
ZONE-VAV-CORRIDOR
 62
 43
 10
       62.35700
 20
        9.55040
 30
        3.65760
 11
       62.35700
 21
        9.55040
 31
        0.00000
 12
       65.82410
 22
        9.55040
 32
        0.00000
 13
       65.82410
 23
        9.55040
 33
        3.65760
999
ZONE-VAV-CORRIDOR:9228AB
  0
3DFACE
  8
ZONE-VAV-CORRIDOR
 62
 43
 10
       20.06600
 20
        9.55040
 30
        3.65760
 11
       20.06600
 21
        9.55040
 31
        0.00000
 12
       28.93060
 22
        9.55040
 32
        0.00000
 13
       28.93060
 23
        9.55040
 33
        3.65760
999
ZONE-VAV-CORRIDOR:7C8314
  0
3DFACE
  8
ZONE-VAV-CORRIDOR
 62
 43
 10
       59.69000
 20
       13.20800
 30
        3.65760
 11
       59.69000
 21
       13.20800
 31
        0.00000
 12
       51.61280
 22
       13.20800
 32
        0.00000
 13
       51.61280
 23
       13.20800
 33
        3.65760
999
ZONE-VAV-CORRIDOR:4B5644
  0
3DFACE
  8
ZONE-VAV-CORRIDOR
 62
 43
 10
       51.61280
 20
       13.20800
 30
        3.65760
 11
       51.61280
 21
       13.20800
 31
        0.00000
 12
       45.37710
 22
       13.20800
 32
        0.00000
 13
       45.37710
 23
       13.20800
 33
        3.65760
999
ZONE-VAV-CORRIDOR:A7B143
  0
3DFACE
  8
ZONE-VAV-CORRIDOR
 62
 43
 10
       21.99640
 20
       13.20800
 30
        3.65760
 11
       21.99640
 21
       13.20800
 31
        0.00000
 12
       18.13560
 22
       13.20800
 32
        0.00000
 13
       18.13560
 23
       13.20800
 33
        3.65760
999
ZONE-VAV-CORRIDOR:5EF201
  0
3DFACE
  8
ZONE-VAV-CORRIDOR
 62
 43
 10
       41.32580
 20
        9.55040
 30
        3.65760
 11
       41.32580
 21
        9.55040
 31
        0.00000
 12
       41.32580
 22
       13.20800
 32
        0.00000
 13
       41.32580
 23
       13.20800
 33
        3.65760
999
ZONE-VAV-CORRIDOR:E03EB1
  0
3DFACE
  8
ZONE-VAV-CORRIDOR
 62
 43
 10
       38.25240
 20
        9.55040
 30
        3.65760
 11
       38.25240
 21
        9.55040
 31
        0.00000
 12
       41.32580
 22
        9.55040
 32
        0.00000
 13
       41.32580
 23
        9.55040
 33
        3.65760
999
ZONE-VAV-CORRIDOR:6E7096
  0
3DFACE
  8
ZONE-VAV-CORRIDOR
 62
 43
 10
       28.93060
 20
        9.55040
 30
        3.65760
 11
       28.93060
 21
        9.55040
 31
        0.00000
 12
       32.00400
 22
        9.55040
 32
        0.00000
 13
       32.00400
 23
        9.55040
 33
        3.65760
999
ZONE-VAV-CORRIDOR:4BAEC9
  0
3DFACE
  8
ZONE-VAV-CORRIDOR
 62
 43
 10
       28.93060
 20
       13.20800
 30
        3.65760
 11
       28.93060
 21
       13.20800
 31
        0.00000
 12
       28.93060
 22
        9.55040
 32
        0.00000
 13
       28.93060
 23
        9.55040
 33
        3.65760
999
ZONE-VAV-CORRIDOR:18E261
  0
3DFACE
  8
ZONE-VAV-CORRIDOR
 62
  8
 10
       41.32580
 20
       16.48460
 30
        0.00000
 11
       41.32580
 21
        9.55040
 31
        0.00000
 12
       28.93060
 22
        9.55040
 32
        0.00000
 13
       28.93060
 23
       16.48460
 33
        0.00000
999
ZONE-VAV-CORRIDOR:AF8B97
  0
3DFACE
  8
ZONE-VAV-CORRIDOR
 62
  8
 10
       65.82410
 20
       13.20800
 30
        0.00000
 11
       65.82410
 21
        9.55040
 31
        0.00000
 12
       41.32580
 22
        9.55040
 32
        0.00000
 13
       41.32580
 23
       13.20800
 33
        0.00000
999
ZONE-VAV-CORRIDOR:47E9DA
  0
3DFACE
  8
ZONE-VAV-CORRIDOR
 62
  8
 10
       41.32580
 20
        9.55040
 30
        0.00000
 11
       41.32580
 21
        7.95020
 31
        0.00000
 12
       38.25240
 22
        7.95020
 32
        0.00000
 13
       38.25240
 23
        9.55040
 33
        0.00000
999
ZONE-VAV-CORRIDOR:DDA518
  0
3DFACE
  8
ZONE-VAV-CORRIDOR
 62
  8
 10
       32.00400
 20
        9.55040
 30
        0.00000
 11
       32.00400
 21
        7.95020
 31
        0.00000
 12
       28.93060
 22
        7.95020
 32
        0.00000
 13
       28.93060
 23
        9.55040
 33
        0.00000
999
ZONE-VAV-CORRIDOR:293168
  0
3DFACE
  8
ZONE-VAV-CORRIDOR
 62
  8
 10
       28.93060
 20
       13.20800
 30
        0.00000
 11
       28.93060
 21
        9.55040
 31
        0.00000
 12
       18.13560
 22
        9.55040
 32
        0.00000
 13
       18.13560
 23
       13.20800
 33
        0.00000
999
ZONE-VAV-CORRIDOR:557B97
  0
3DFACE
  8
ZONE-VAV-CORRIDOR
 62
 15
 10
       41.32580
 20
       13.20800
 30
        3.65760
 11
       41.32580
 21
        9.55040
 31
        3.65760
 12
       65.82410
 22
        9.55040
 32
        3.65760
 13
       65.82410
 23
       13.20800
 33
        3.65760
999
ZONE-VAV-CORRIDOR:235A4C
  0
3DFACE
  8
ZONE-VAV-CORRIDOR
 62
 15
 10
       28.93060
 20
       16.48460
 30
        3.65760
 11
       28.93060
 21
        9.55040
 31
        3.65760
 12
       41.32580
 22
        9.55040
 32
        3.65760
 13
       41.32580
 23
       16.48460
 33
        3.65760
999
ZONE-VAV-CORRIDOR:9ECAFE
  0
3DFACE
  8
ZONE-VAV-CORRIDOR
 62
 15
 10
       18.13560
 20
       13.20800
 30
        3.65760
 11
       18.13560
 21
        9.55040
 31
        3.65760
 12
       28.93060
 22
        9.55040
 32
        3.65760
 13
       28.93060
 23
       13.20800
 33
        3.65760
999
ZONE-VAV-CORRIDOR:7B05BB
  0
3DFACE
  8
ZONE-VAV-CORRIDOR
 62
 15
 10
       28.93060
 20
        9.55040
 30
        3.65760
 11
       28.93060
 21
        7.95020
 31
        3.65760
 12
       32.00400
 22
        7.95020
 32
        3.65760
 13
       32.00400
 23
        9.55040
 33
        3.65760
999
ZONE-VAV-CORRIDOR:1A0C32
  0
3DFACE
  8
ZONE-VAV-CORRIDOR
 62
 15
 10
       38.25240
 20
        9.55040
 30
        3.65760
 11
       38.25240
 21
        7.95020
 31
        3.65760
 12
       41.32580
 22
        7.95020
 32
        3.65760
 13
       41.32580
 23
        9.55040
 33
        3.65760
999
ZONE-VAV-133:80447C
  0
3DFACE
  8
ZONE-VAV-133
 62
 43
 10
       18.13560
 20
       13.20800
 30
        3.65760
 11
       18.13560
 21
       13.20800
 31
        0.00000
 12
       18.13560
 22
       16.48460
 32
        0.00000
 13
       18.13560
 23
       16.48460
 33
        3.65760
999
ZONE-VAV-133:EF5E5E
  0
3DFACE
  8
ZONE-VAV-133
 62
 43
 10
        2.43840
 20
       13.20800
 30
        3.65760
 11
        2.43840
 21
       13.20800
 31
        0.00000
 12
       18.13560
 22
       13.20800
 32
        0.00000
 13
       18.13560
 23
       13.20800
 33
        3.65760
999
ZONE-VAV-133:233F0C
  0
3DFACE
  8
ZONE-VAV-133
 62
 43
 10
       18.13560
 20
       16.48460
 30
        3.65760
 11
       18.13560
 21
       16.48460
 31
        0.00000
 12
        2.43840
 22
       16.48460
 32
        0.00000
 13
        2.43840
 23
       16.48460
 33
        3.65760
999
ZONE-VAV-133:BABCA7
  0
3DFACE
  8
ZONE-VAV-133
 62
 43
 10
        2.43840
 20
       16.48460
 30
        3.65760
 11
        2.43840
 21
       16.48460
 31
        0.00000
 12
        2.43840
 22
       13.20800
 32
        0.00000
 13
        2.43840
 23
       13.20800
 33
        3.65760
999
ZONE-VAV-133:FEC5CC
  0
3DFACE
  8
ZONE-VAV-133
 62
  8
 10
       18.13560
 20
       16.48460
 30
        0.00000
 11
       18.13560
 21
       13.20800
 31
        0.00000
 12
        2.43840
 22
       13.20800
 32
        0.00000
 13
        2.43840
 23
       16.48460
 33
        0.00000
999
ZONE-VAV-133:3D184F
  0
3DFACE
  8
ZONE-VAV-133
 62
 15
 10
       18.13560
 20
       13.20800
 30
        3.65760
 11
       18.13560
 21
       16.48460
 31
        3.65760
 12
        2.43840
 22
       16.48460
 32
        3.65760
 13
        2.43840
 23
       13.20800
 33
        3.65760
999
ZONE-VAV-107:20AB88
  0
3DFACE
  8
ZONE-VAV-107
 62
 43
 10
       55.42280
 20
        9.55040
 30
        3.65760
 11
       55.42280
 21
        9.55040
 31
        0.00000
 12
       51.61280
 22
        9.55040
 32
        0.00000
 13
       51.61280
 23
        9.55040
 33
        3.65760
999
ZONE-VAV-107:1FE363
  0
3DFACE
  8
ZONE-VAV-107
 62
 43
 10
       55.42280
 20
        4.74980
 30
        3.65760
 11
       55.42280
 21
        4.74980
 31
        0.00000
 12
       55.42280
 22
        9.55040
 32
        0.00000
 13
       55.42280
 23
        9.55040
 33
        3.65760
999
ZONE-VAV-107:6849BA
  0
3DFACE
  8
ZONE-VAV-107
 62
 43
 10
       51.61280
 20
        4.74980
 30
        3.65760
 11
       51.61280
 21
        4.74980
 31
        0.00000
 12
       55.42280
 22
        4.74980
 32
        0.00000
 13
       55.42280
 23
        4.74980
 33
        3.65760
999
ZONE-VAV-107:996444
  0
3DFACE
  8
ZONE-VAV-107
 62
 43
 10
       51.61280
 20
        9.55040
 30
        3.65760
 11
       51.61280
 21
        9.55040
 31
        0.00000
 12
       51.61280
 22
        4.74980
 32
        0.00000
 13
       51.61280
 23
        4.74980
 33
        3.65760
999
ZONE-VAV-107:AA54F3
  0
3DFACE
  8
ZONE-VAV-107
 62
  8
 10
       55.42280
 20
        9.55040
 30
        0.00000
 11
       55.42280
 21
        4.74980
 31
        0.00000
 12
       51.61280
 22
        4.74980
 32
        0.00000
 13
       51.61280
 23
        9.55040
 33
        0.00000
999
ZONE-VAV-107:D315F4
  0
3DFACE
  8
ZONE-VAV-107
 62
 15
 10
       51.61280
 20
        9.55040
 30
        3.65760
 11
       51.61280
 21
        4.74980
 31
        3.65760
 12
       55.42280
 22
        4.74980
 32
        3.65760
 13
       55.42280
 23
        9.55040
 33
        3.65760
  0
ENDSEC
  0
EOF
